@<TRIPOS>MOLECULE
FTR.pdb
27 28 1 0 0
SMALL
AMBER ff99SB


@<TRIPOS>ATOM
      1 N           1.6300   -2.7080   -0.4000 N.4       1 FTR   -0.8326
      2 CA          2.1920   -1.3610   -0.4290 C.3       1 FTR   -0.0665
      3 O           4.3230   -2.4650   -0.4050 O.co2     1 FTR   -0.8063
      4 CB          1.6880   -0.5730    0.8120 C.3       1 FTR   -0.0192
      5 CG          0.1820   -0.2940    0.8260 C.ar      1 FTR   -0.1942
      6 CD1        -0.7900   -1.0600    1.5020 C.ar      1 FTR   -0.0750
      7 CD2        -0.5150    0.6720    0.1300 C.ar      1 FTR   -0.0640
      8 CE2        -1.8950    0.4860    0.3930 C.ar      1 FTR   -0.0463
      9 CE3        -0.0790    1.7000   -0.7450 C.ar      1 FTR   -0.1300
     10 NE1        -2.0920   -0.5880    1.2480 N.ar      1 FTR   -0.2334
     11 CZ2        -2.8490    1.3350   -0.2090 C.ar      1 FTR   -0.1150
     12 CZ3        -1.0400    2.5300   -1.3220 C.ar      1 FTR    0.1059
     13 CH2        -2.4050    2.3530   -1.0570 C.ar      1 FTR   -0.1430
     14 C           3.7310   -1.4220   -0.4280 C.2       1 FTR    0.9346
     15 OXT         4.4750   -0.2010   -0.4540 O.co2     1 FTR   -0.7113
     16 FZ3        -0.6450    3.5200   -2.1500 F         1 FTR   -0.1389
     17 H3           2.2090   -3.5230   -0.3820 H         1 FTR    0.4808
     18 HA          1.8730   -0.8550   -1.3600 H         1 FTR    0.0887
     19 HB1         2.2080    0.4010    0.8840 H         1 FTR    0.1117
     20 HB2         1.9720   -1.1040    1.7420 H         1 FTR    0.0687
     21 H1          1.0511   -2.7906   -1.2235 H         1 FTR    0.4258
     22 H2          1.0178   -2.7589    0.4017 H         1 FTR    0.4258
     23 HD1        -0.5637   -1.9044    2.1362 H         1 FTR    0.1740
     24 HE3         0.9708    1.8365   -0.9590 H         1 FTR    0.1600
     25 HZ2        -3.9033    1.2000   -0.0175 H         1 FTR    0.1430
     26 HH2        -3.1253    3.0142   -1.5157 H         1 FTR    0.1530
     27 HE1        -2.9656   -0.9477    1.6051 H         1 FTR    0.3047
@<TRIPOS>BOND
     1   14    2 1
     2   14    3 2
     3   14   15 1
     4    2    4 1
     5    2   18 1
     6    2    1 1
     7    4    5 1
     8    4   19 1
     9    4   20 1
    10    6    5 ar
    11    6   10 ar
    12    7    8 ar
    13    7    9 ar
    14    7    5 ar
    15    8   11 ar
    16    8   10 ar
    17    9   12 ar
    18   13   11 ar
    19   13   12 ar
    20   12   16 1
    21   17    1 1
    22   21    1 1
    23   22    1 1
    24   23    6 1
    25   24    9 1
    26   25   11 1
    27   26   13 1
    28   27   10 1
@<TRIPOS>SUBSTRUCTURE
     1 FTR     2 RESIDUE           4 A     FTR     0 ROOT
