@<TRIPOS>MOLECULE
MEQ.pdb
23 22 1 0 0
SMALL
AMBER ff99SB


@<TRIPOS>ATOM
      1 N           2.7879   -5.4690   -0.4849 N.4       1 MEQ1       -0.8196
      2 CA          2.1294   -5.9514    0.7012 C.3       1 MEQ1       -0.0745
      3 CB          0.6040   -5.9527    0.5654 C.3       1 MEQ1       -0.0854
      4 CG          0.0121   -4.5588    0.3533 C.3       1 MEQ1       -0.1644
      5 CD         -1.5030   -4.5506    0.2540 C.2       1 MEQ1        0.6631
      6 OE1        -2.1886   -5.5678    0.3141 O.2       1 MEQ1       -0.6901
      7 NE2        -1.9962   -3.2670    0.0628 N.am      1 MEQ1       -0.5519
      8 CZ         -3.4057   -2.9886   -0.0895 C.3       1 MEQ1        0.0713
      9 C           2.6373   -7.3620    0.9328 C.2       1 MEQ1        0.9366
     10 O           2.9014   -8.1700    0.0524 O.co2     1 MEQ1       -0.8003
     11 OXT         2.7222   -7.6591    2.2560 O.co2     1 MEQ1       -0.7243
     12 HA          2.4132   -5.3258    1.5486 H         1 MEQ1        0.0847
     13 HB1         0.1770   -6.3757    1.4743 H         1 MEQ1        0.1237
     14 HB2         0.3274   -6.5843   -0.2791 H         1 MEQ1        0.0617
     15 HG1         0.3057   -3.9283    1.1928 H         1 MEQ1        0.0667
     16 HG2         0.4260   -4.1368   -0.5631 H         1 MEQ1        0.0767
     17 HE2        -1.3432   -2.4970    0.0290 H         1 MEQ1        0.3185
     18 HZ1        -3.5523   -1.9168   -0.2265 H         1 MEQ1        0.0387
     19 HZ2        -3.9391   -3.3164    0.8030 H         1 MEQ1        0.0377
     20 HZ3        -3.7896   -3.5212   -0.9590 H         1 MEQ1        0.0787
     21 H1          2.4806   -4.5275   -0.6814 H         1 MEQ1        0.4418
     22 H2          3.7875   -5.4745   -0.3405 H         1 MEQ1        0.4318
     23 H3          2.5575   -6.0684   -1.2649 H         1 MEQ1        0.4768
@<TRIPOS>BOND
     1    9    2 1
     2    9   10 2
     3    9   11 1
     4    2    1 1
     5    2    3 1
     6    2   12 1
     7    3   14 1
     8    3   13 1
     9    3    4 1
    10    5    4 1
    11    5    6 2
    12    5    7 am
    13    8    7 1
    14    8   18 1
    15    8   19 1
    16    8   20 1
    17    4   15 1
    18    4   16 1
    19   21    1 1
    20   22    1 1
    21   23    1 1
    22   17    7 1
@<TRIPOS>SUBSTRUCTURE
     1 MEQ1        2 RESIDUE           4 A     MEQ     0 ROOT
