@<TRIPOS>MOLECULE
2AS.pdb
18 17 1 0 0
SMALL
NO_CHARGES


@<TRIPOS>ATOM
      1 C          -1.9070   -0.0410   -0.2120 C.2       1 2AS    0.0000
      2 O          -2.5220    0.1510    0.8100 O.co2     1 2AS    0.0000
      3 CA         -0.5150    0.5140   -0.3680 C.3       1 2AS    0.0000
      4 N          -0.3120    1.6080    0.5910 N.4       1 2AS    0.0000
      5 CB          0.5080   -0.5930   -0.1030 C.3       1 2AS    0.0000
      6 CG1         1.9010   -0.0380   -0.2590 C.2       1 2AS    0.0000
      7 OD1         2.9650   -0.8340   -0.0720 O.co2     1 2AS    0.0000
      8 CG2         0.3280   -1.1230    1.3210 C.3       1 2AS    0.0000
      9 OD2         2.0590    1.1230   -0.5530 O.co2     1 2AS    0.0000
     10 OXT        -2.4610   -0.7530   -1.2050 O.co2     1 2AS    0.0000
     11 HA         -0.3860    0.8910   -1.3830 H         1 2AS    0.0000
     12 HN3        -0.9330    2.3790    0.3950 H         1 2AS    0.0000
     13 HN2        -0.4260    1.2830    1.5390 H         1 2AS    0.0000
     14 HB2         0.3580   -1.4050   -0.8140 H         1 2AS    0.0000
     15 HG21       -0.6790   -1.5240    1.4350 H         1 2AS    0.0000
     16 HG22        1.0560   -1.9110    1.5110 H         1 2AS    0.0000
     17 HG23        0.4770   -0.3110    2.0330 H         1 2AS    0.0000
     18 H1          0.6366    1.9393    0.4881 H         1 2AS    0.0000
@<TRIPOS>BOND
     1    1    3 1
     2    1    2 2
     3    1   10 1
     4    3    5 1
     5    3   11 1
     6    3    4 1
     7    5    6 1
     8    5    8 1
     9    5   14 1
    10    6    7 2
    11    6    9 2
    12    8   15 1
    13    8   16 1
    14    8   17 1
    15   13    4 1
    16   12    4 1
    17   18    4 1
@<TRIPOS>SUBSTRUCTURE
     1 2AS     3 RESIDUE           4 A     2AS     0 ROOT
