@<TRIPOS>MOLECULE
LED.pdb
21 20 1 0 0
SMALL
AMBER ff99SB


@<TRIPOS>ATOM
      1 N          -1.2090    0.8690    2.2310 N.4       1 LED1       -0.8296
      2 CA         -0.8810    1.7810    1.1300 C.3       1 LED1       -0.0825
      3 CB          0.4920    1.4190    0.5390 C.3       1 LED1       -0.0814
      4 CG          1.6890    1.4600    1.5070 C.3       1 LED1       -0.2007
      5 CD1         2.9490    0.8250    0.9310 C.3       1 LED1       -0.0931
      6 CD2         1.9370    2.8670    2.0180 C.2       1 LED1        0.5869
      7 OE          1.3250    3.8620    1.6420 O.2       1 LED1       -0.5761
      8 C          -1.9970    1.6200    0.1140 C.2       1 LED1        0.9396
      9 O          -2.9090    0.8070    0.2050 O.co2     1 LED1       -0.8003
     10 OXT        -1.8740    2.4680   -0.9380 O.co2     1 LED1       -0.7173
     11 HA         -0.8630    2.8080    1.4960 H         1 LED1        0.0917
     12 HB1         0.4240    0.4070    0.1400 H         1 LED1        0.0717
     13 HB2         0.6980    2.0990   -0.2870 H         1 LED1        0.1137
     14 HG          1.4080    0.8610    2.3730 H         1 LED1        0.0557
     15 HD2         2.7060    3.0020    2.7640 H         1 LED1        0.0242
     16 H1         -0.4970    0.9320    2.9440 H         1 LED1        0.4428
     17 H2         -2.1030    1.1250    2.6250 H         1 LED1        0.4828
     18 H3         -1.2540   -0.0780    1.8820 H         1 LED1        0.4228
     19 HD11        3.7550    0.8860    1.6630 H         1 LED1        0.0417
     20 HD12        3.2410    1.3540    0.0240 H         1 LED1        0.0507
     21 HD13        2.7530   -0.2210    0.6940 H         1 LED1        0.0557
@<TRIPOS>BOND
     1    8    2 1
     2    8    9 2
     3    8   10 1
     4    2    1 1
     5    2    3 1
     6    2   11 1
     7    3    4 1
     8    3   12 1
     9    3   13 1
    10    5    4 1
    11    5   19 1
    12    5   20 1
    13    5   21 1
    14    6    4 1
    15    6    7 2
    16    6   15 1
    17    4   14 1
    18   16    1 1
    19   17    1 1
    20   18    1 1
@<TRIPOS>SUBSTRUCTURE
     1 LED1        2 RESIDUE           4 A     LED     0 ROOT
