@<TRIPOS>MOLECULE
ALN.pdb
29 30 1 0 0
SMALL
AMBER ff99SB


@<TRIPOS>ATOM
      1 N          14.1716   35.6696  -67.5557 N.4       1 ALN1       -0.8346
      2 CA         15.5029   35.1892  -67.9458 C.3       1 ALN1       -0.0705
      3 C          16.5862   36.2145  -67.6053 C.2       1 ALN1        0.9366
      4 O          17.7711   35.8782  -67.5083 O.co2     1 ALN1       -0.7133
      5 CB         15.5412   34.8604  -69.4455 C.3       1 ALN1       -0.0531
      6 CG         14.4515   33.9165  -69.8946 C.ar      1 ALN1       -0.0963
      7 CD1        14.6203   32.5358  -69.7869 C.ar      1 ALN1       -0.0330
      8 CD2        13.2574   34.4090  -70.4257 C.ar      1 ALN1       -0.1540
      9 CE1        13.6182   31.6622  -70.1978 C.ar      1 ALN1       -0.0370
     10 CE2        12.2466   33.5447  -70.8390 C.ar      1 ALN1       -0.1320
     11 CZ         12.4271   32.1698  -70.7256 C.ar      1 ALN1       -0.1100
     12 CH1        15.8310   32.0324  -69.2454 C.ar      1 ALN1       -0.1260
     13 CH2        13.8082   30.2502  -70.0345 C.ar      1 ALN1       -0.1210
     14 CJ1        16.0279   30.6466  -69.1201 C.ar      1 ALN1       -0.1190
     15 CJ2        15.0164   29.7560  -69.5146 C.ar      1 ALN1       -0.1200
     16 OXT        16.2728   37.3893  -67.4257 O.co2     1 ALN1       -0.8013
     17 HA         15.7123   34.2754  -67.3906 H         1 ALN1        0.0917
     18 HB1        16.5045   34.4042  -69.6719 H         1 ALN1        0.1167
     19 HB2        15.4534   35.7893  -70.0089 H         1 ALN1        0.0697
     20 HD2        13.1158   35.4755  -70.5176 H         1 ALN1        0.1300
     21 HE2        11.3270   33.9398  -71.2454 H         1 ALN1        0.1370
     22 HZ         11.6476   31.4953  -71.0450 H         1 ALN1        0.1380
     23 HH1        16.6040   32.7168  -68.9287 H         1 ALN1        0.1520
     24 HH2        13.0205   29.5645  -70.3117 H         1 ALN1        0.1360
     25 HJ1        16.9566   30.2668  -68.7209 H         1 ALN1        0.1410
     26 HJ2        15.1673   28.6906  -69.4186 H         1 ALN1        0.1380
     27 H1         14.1656   35.8806  -66.5677 H         1 ALN1        0.4258
     28 H2         13.4855   34.9545  -67.7514 H         1 ALN1        0.4268
     29 H3         13.9480   36.5038  -68.0793 H         1 ALN1        0.4828
@<TRIPOS>BOND
     1    3    2 1
     2    3    4 2
     3    3   16 2
     4    2    5 1
     5    2   17 1
     6    2    1 1
     7    5    6 1
     8    5   18 1
     9    5   19 1
    10    7    9 ar
    11    7    6 ar
    12    7   12 ar
    13    8   10 ar
    14    8    6 ar
    15    8   20 1
    16    9   13 ar
    17    9   11 ar
    18   10   11 ar
    19   10   21 1
    20   12   14 ar
    21   12   23 1
    22   13   15 ar
    23   13   24 1
    24   14   15 ar
    25   14   25 1
    26   15   26 1
    27   11   22 1
    28   27    1 1
    29   28    1 1
    30   29    1 1
@<TRIPOS>SUBSTRUCTURE
     1 ALN1        2 RESIDUE           4 A     ALN     0 ROOT
