@<TRIPOS>MOLECULE
CSE.pdb
14 13 1 0 0
SMALL
NO_CHARGES


@<TRIPOS>ATOM
      1 N           1.6190    0.4730    0.7270 N.4       1 CSE    0.0000
      2 CA          0.1670    0.4390    0.9460 C.3       1 CSE    0.0000
      3 C          -0.1160    0.0080    2.3620 C.2       1 CSE    0.0000
      4 O           0.6460   -0.7330    2.9330 O.co2     1 CSE    0.0000
      5 CB         -0.4720   -0.5520   -0.0260 C.3       1 CSE    0.0000
      6 SE         -0.1020    0.0080   -1.8670 Se        1 CSE    0.0000
      7 OXT        -1.2180    0.4490    2.9890 O.co2     1 CSE    0.0000
      8 H3          1.9590   -0.4620    0.8930 H         1 CSE    0.0000
      9 HA         -0.2480    1.4330    0.7790 H         1 CSE    0.0000
     10 HB1        -0.0560   -1.5450    0.1410 H         1 CSE    0.0000
     11 HB2        -1.5490   -0.5760    0.1360 H         1 CSE    0.0000
     12 HE         -0.8690   -1.1780   -2.5280 H         1 CSE    0.0000
     13 H2          1.7600    0.6630   -0.2530 H         1 CSE    0.0000
     14 H1          2.0765    1.1541    1.3160 H         1 CSE    0.0000
@<TRIPOS>BOND
     1    3    2 1
     2    3    4 2
     3    3    7 2
     4    2    5 1
     5    2    9 1
     6    2    1 1
     7    5   10 1
     8    5   11 1
     9    5    6 1
    10    8    1 1
    11   13    1 1
    12   12    6 1
    13   14    1 1
@<TRIPOS>SUBSTRUCTURE
     1 CSE     2 RESIDUE           4 A     CSE     0 ROOT
