@<TRIPOS>MOLECULE
GGB.pdb
24 23 1 0 0
SMALL
AMBER ff99SB


@<TRIPOS>ATOM
      1 N           1.7770   -0.2670    2.1860 N.4       1 GGB   -0.8266
      2 CA          0.4630    0.3900    2.2040 C.3       1 GGB   -0.0595
      3 C          -0.2650    0.0220    3.4710 C.2       1 GGB    0.9326
      4 O          -0.0630   -1.0470    3.9950 O.co2     1 GGB   -0.8053
      5 CB         -0.3530   -0.0680    0.9940 C.3       1 GGB   -0.1054
      6 CG          0.3860    0.3050   -0.2910 C.3       1 GGB    0.1004
      7 OD         -0.3750   -0.1220   -1.4210 O.3       1 GGB   -0.2143
      8 NE          0.3560    0.2500   -2.5740 N.pl3     1 GGB   -0.6362
      9 CZ         -0.1370   -0.0360   -3.8240 C.cat     1 GGB    0.5681
     10 NH1        -1.2800   -0.6510   -3.9490 N.pl3     1 GGB   -0.5201
     11 NH2         0.5730    0.3250   -4.9440 N.pl3     1 GGB   -0.4831
     12 OXT        -1.0380    0.8020    3.9360 O.co2     1 GGB   -0.7253
     13 HH12       -1.6280   -0.8530   -4.8310 H         1 GGB    0.2607
     14 HH21        0.2250    0.1220   -5.8260 H         1 GGB    0.2517
     15 HH22        1.4240    0.7820   -4.8520 H         1 GGB    0.2607
     16 HB1        -0.4870   -1.1490    1.0350 H         1 GGB    0.0657
     17 HB2        -1.3270    0.4190    1.0080 H         1 GGB    0.1187
     18 HG1         0.5210    1.3860   -0.3310 H         1 GGB    0.0527
     19 HG2         1.3610   -0.1820   -0.3040 H         1 GGB    0.0597
     20 HH11       -1.8030   -0.9170   -3.1270 H         1 GGB    0.2717
     21 HA          0.5970    1.4710    2.1640 H         1 GGB    0.0857
     22 H1          2.1830   -0.0780    1.2820 H         1 GGB    0.4438
     23 H2          1.6040   -1.2600    2.2250 H         1 GGB    0.4748
     24 H3          2.3690    0.0460    2.9420 H         1 GGB    0.4288
@<TRIPOS>BOND
     1    1    2 1
     2    1   22 1
     3    1   23 1
     4    1   24 1
     5    2    3 1
     6    2    5 1
     7    2   21 1
     8    3    4 2
     9    3   12 2
    10    5    6 1
    11    5   16 1
    12    5   17 1
    13    6    7 1
    14    6   18 1
    15    6   19 1
    16    7    8 1
    17    8    9 2
    18    9   10 1
    19    9   11 1
    20   10   13 1
    21   10   20 1
    22   11   14 1
    23   11   15 1
@<TRIPOS>SUBSTRUCTURE
     1 GGB     2 RESIDUE           4 A     GGB     0 ROOT
