@<TRIPOS>MOLECULE
MOT5.pdb
31 32 1 0 0
SMALL
AMBER ff99SB


@<TRIPOS>ATOM
      1 N           1.6300   -2.7080   -0.4000 N.4       1 MOT5   -0.8316
      2 CA          2.1920   -1.3610   -0.4290 C.3       1 MOT5   -0.0655
      3 C           3.7310   -1.4220   -0.4280 C.2       1 MOT5    0.9336
      4 O           4.3230   -2.4650   -0.4050 O.co2     1 MOT5   -0.8083
      5 CB          1.6880   -0.5730    0.8120 C.3       1 MOT5   -0.0172
      6 CG          0.1820   -0.2940    0.8260 C.ar      1 MOT5   -0.1982
      7 CD1        -0.7900   -1.0600    1.5020 C.ar      1 MOT5   -0.0710
      8 CD2        -0.5150    0.6720    0.1300 C.ar      1 MOT5   -0.0740
      9 CE2        -1.8950    0.4860    0.3930 C.ar      1 MOT5   -0.0443
     10 CE3        -0.0790    1.7000   -0.7450 C.ar      1 MOT5   -0.1070
     11 NE1        -2.0920   -0.5880    1.2480 N.ar      1 MOT5   -0.2354
     12 CZ2        -2.8490    1.3350   -0.2090 C.ar      1 MOT5   -0.1230
     13 CZ3        -1.0400    2.5300   -1.3220 C.ar      1 MOT5    0.0791
     14 OZ3        -0.6220    3.5790   -2.1990 O.3       1 MOT5   -0.3429
     15 CH2        -2.4050    2.3530   -1.0570 C.ar      1 MOT5   -0.1400
     16 OXT         4.4750   -0.2010   -0.4540 O.co2     1 MOT5   -0.7133
     17 CJ3        -0.6340    4.8240   -1.4960 C.3       1 MOT5    0.1177
     18 HA          1.8730   -0.8550   -1.3600 H         1 MOT5    0.0897
     19 HB1         2.2080    0.4010    0.8840 H         1 MOT5    0.1077
     20 HB2         1.9720   -1.1040    1.7420 H         1 MOT5    0.0687
     21 HD1        -0.5640   -1.9040    2.1360 H         1 MOT5    0.1740
     22 HE1        -2.9660   -0.9480    1.6050 H         1 MOT5    0.3037
     23 HE3         0.9710    1.8370   -0.9590 H         1 MOT5    0.1560
     24 HZ2        -3.9030    1.2000   -0.0170 H         1 MOT5    0.1390
     25 HH2        -3.1250    3.0140   -1.5160 H         1 MOT5    0.1440
     26 H1          1.0510   -2.7910   -1.2230 H         1 MOT5    0.4268
     27 H2          1.0180   -2.7590    0.4020 H         1 MOT5    0.4288
     28 H3          2.2090   -3.5230   -0.3820 H         1 MOT5    0.4798
     29 HJ31        0.3400    5.3040   -1.5890 H         1 MOT5    0.0657
     30 HJ32       -0.8530    4.6460   -0.4430 H         1 MOT5    0.0347
     31 HJ33       -1.4000    5.4730   -1.9210 H         1 MOT5    0.0247
@<TRIPOS>BOND
     1    3    2 1
     2    3    4 2
     3    3   16 1
     4    2    5 1
     5    2   18 1
     6    2    1 1
     7    5    6 1
     8    5   19 1
     9    5   20 1
    10    7    6 ar
    11    7   21 1
    12    7   11 ar
    13    8    9 ar
    14    8   10 ar
    15    8    6 ar
    16    9   12 ar
    17    9   11 ar
    18   10   13 ar
    19   10   23 1
    20   15   12 ar
    21   15   13 ar
    22   15   25 1
    23   17   29 1
    24   17   30 1
    25   17   31 1
    26   17   14 1
    27   12   24 1
    28   13   14 1
    29   26    1 1
    30   27    1 1
    31   28    1 1
    32   22   11 1
@<TRIPOS>SUBSTRUCTURE
     1 MOT5     2 RESIDUE           4 A     MOT5     0 ROOT
