@<TRIPOS>MOLECULE
HRP.pdb
28 29 1 0 0
SMALL
AMBER ff99SB


@<TRIPOS>ATOM
      1 N           1.6300   -2.7080   -0.4000 N.4       1 HRP   -0.8316
      2 CA          2.1920   -1.3610   -0.4290 C.3       1 HRP   -0.0655
      3 C           3.7310   -1.4220   -0.4280 C.2       1 HRP    0.9336
      4 O           4.3230   -2.4650   -0.4050 O.co2     1 HRP   -0.8083
      5 CB          1.6880   -0.5730    0.8120 C.3       1 HRP   -0.0162
      6 CG          0.1820   -0.2940    0.8260 C.ar      1 HRP   -0.2042
      7 CD1        -0.7900   -1.0600    1.5020 C.ar      1 HRP   -0.0670
      8 CD2        -0.5150    0.6720    0.1300 C.ar      1 HRP   -0.0530
      9 CE2        -1.8950    0.4860    0.3930 C.ar      1 HRP   -0.0643
     10 CE3        -0.0790    1.7000   -0.7450 C.ar      1 HRP   -0.1290
     11 NE1        -2.0920   -0.5880    1.2480 N.ar      1 HRP   -0.2354
     12 CZ2        -2.8490    1.3350   -0.2090 C.ar      1 HRP   -0.1010
     13 CZ3        -1.0400    2.5300   -1.3220 C.ar      1 HRP    0.1051
     14 CH2        -2.4050    2.3530   -1.0570 C.ar      1 HRP   -0.1860
     15 OXT         4.4750   -0.2010   -0.4540 O.co2     1 HRP   -0.7123
     16 OZ3        -0.6220    3.5790   -2.1990 O.3       1 HRP   -0.4971
     17 HA          1.8730   -0.8550   -1.3600 H         1 HRP    0.0897
     18 HB1         2.2080    0.4010    0.8840 H         1 HRP    0.1087
     19 HB2         1.9720   -1.1040    1.7420 H         1 HRP    0.0687
     20 HD1        -0.5640   -1.9040    2.1360 H         1 HRP    0.1740
     21 HE1        -2.9660   -0.9480    1.6050 H         1 HRP    0.3017
     22 HE3         0.9710    1.8370   -0.9590 H         1 HRP    0.1600
     23 HZ2        -3.9030    1.2000   -0.0170 H         1 HRP    0.1390
     24 HH2        -3.1250    3.0140   -1.5160 H         1 HRP    0.1380
     25 H1          1.0510   -2.7910   -1.2230 H         1 HRP    0.4258
     26 H2          1.0180   -2.7590    0.4020 H         1 HRP    0.4278
     27 H3          2.2090   -3.5230   -0.3820 H         1 HRP    0.4798
     28 HZ3        -0.6300    4.4150   -1.7270 H         1 HRP    0.4200
@<TRIPOS>BOND
     1    3    2 1
     2    3    4 2
     3    3   15 1
     4    2    5 1
     5    2   17 1
     6    2    1 1
     7    5    6 1
     8    5   18 1
     9    5   19 1
    10    7    6 ar
    11    7   20 1
    12    7   11 ar
    13    8    9 ar
    14    8   10 ar
    15    8    6 ar
    16    9   12 ar
    17    9   11 ar
    18   10   13 ar
    19   10   22 1
    20   14   12 ar
    21   14   13 ar
    22   14   24 1
    23   12   23 1
    24   13   16 1
    25   25    1 1
    26   26    1 1
    27   27    1 1
    28   21   11 1
    29   28   16 1
@<TRIPOS>SUBSTRUCTURE
     1 HRP     2 RESIDUE           4 A     HRP     0 ROOT
