@<TRIPOS>MOLECULE
TFP4.pdb
26 26 1 0 0
SMALL
NO_CHARGES


@<TRIPOS>ATOM
      1 N          22.1880  -19.5900   47.7520 N.4       1 TFP4    0.0000
      2 CA         21.5330  -19.2300   49.0070 C.3       1 TFP4    0.0000
      3 C          20.1970  -19.9190   49.1360 C.2       1 TFP4    0.0000
      4 O          19.7650  -20.6780   48.2650 O.co2     1 TFP4    0.0000
      5 CB         21.2900  -17.6940   49.0850 C.3       1 TFP4    0.0000
      6 CG         22.5350  -16.7980   49.0580 C.ar      1 TFP4    0.0000
      7 CD1        23.2500  -16.5680   50.2370 C.ar      1 TFP4    0.0000
      8 CD2        22.9570  -16.2010   47.8660 C.ar      1 TFP4    0.0000
      9 CE1        24.3720  -15.7450   50.2260 C.ar      1 TFP4    0.0000
     10 CE2        24.0800  -15.3790   47.8570 C.ar      1 TFP4    0.0000
     11 CZ         24.7860  -15.1510   49.0350 C.ar      1 TFP4    0.0000
     12 CH         26.0280  -14.2410   49.0240 C.3       1 TFP4    0.0000
     13 OXT        19.5570  -19.7380   50.1450 O.co2     1 TFP4    0.0000
     14 FH1        25.9130  -13.3330   48.0310 F         1 TFP4    0.0000
     15 FH2        27.1330  -14.9910   48.8200 F         1 TFP4    0.0000
     16 FH3        26.1300  -13.6020   50.2090 F         1 TFP4    0.0000
     17 HN1        23.0780  -19.1170   47.6880 H         1 TFP4    0.0000
     18 HN2        22.3350  -20.5890   47.7240 H         1 TFP4    0.0000
     19 HN3        21.6040  -19.3140   46.9760 H         1 TFP4    0.0000
     20 HA         22.1680  -19.5580   49.8510 H         1 TFP4    0.0000
     21 HB1        20.7270  -17.4530   50.0080 H         1 TFP4    0.0000
     22 HB2        20.5970  -17.3900   48.2730 H         1 TFP4    0.0000
     23 HD1        22.9310  -17.0300   51.1590 H         1 TFP4    0.0000
     24 HD2        22.4110  -16.3670   46.9470 H         1 TFP4    0.0000
     25 HE1        24.9210  -15.5670   51.1390 H         1 TFP4    0.0000
     26 HE2        24.4030  -14.9170   46.9360 H         1 TFP4    0.0000
@<TRIPOS>BOND
     1    3    2 1
     2    3    4 2
     3    3   13 2
     4    2    5 1
     5    2   20 1
     6    2    1 1
     7    5    6 1
     8    5   21 1
     9    5   22 1
    10    7    9 ar
    11    7    6 ar
    12    7   23 1
    13    8   10 ar
    14    8    6 ar
    15    8   24 1
    16    9   11 ar
    17    9   25 1
    18   10   11 ar
    19   10   26 1
    20   12   11 1
    21   12   14 1
    22   12   15 1
    23   12   16 1
    24   17    1 1
    25   18    1 1
    26   19    1 1
@<TRIPOS>SUBSTRUCTURE
     1 TFP4     2 RESIDUE           4 A     TFP4     0 ROOT
