@<TRIPOS>MOLECULE
ACZ.pdb
31 31 1 0 0
SMALL
AMBER ff99SB


@<TRIPOS>ATOM
      1 NJ         -2.5545    0.9997    2.9486 N.4       1 ACZ1       -0.8526
      2 CH         -3.2654   -0.0837    2.2580 C.3       1 ACZ1        0.2439
      3 CZ2        -2.8123   -1.4000    2.8117 C.2       1 ACZ1       -0.2792
      4 CE2        -1.9496   -2.1591    2.2064 C.2       1 ACZ1       -0.0472
      5 CD         -1.3214   -1.7922    0.8972 C.3       1 ACZ1       -0.0693
      6 CE1        -2.1276   -0.7494    0.1830 C.2       1 ACZ1       -0.0042
      7 CZ1        -2.9906    0.0087    0.7874 C.2       1 ACZ1       -0.3112
      8 CG          0.0863   -1.2494    1.1486 C.3       1 ACZ1       -0.0524
      9 CB          0.7347   -0.8723   -0.1830 C.3       1 ACZ1       -0.0804
     10 CA          2.1425   -0.3304    0.0683 C.3       1 ACZ1       -0.0865
     11 N           2.0625    0.8577    0.9277 N.4       1 ACZ1       -0.8296
     12 C           2.7819    0.0400   -1.2439 C.2       1 ACZ1        0.9426
     13 OXT         3.4970   -0.8690   -1.9240 O.co2     1 ACZ1       -0.7543
     14 O           2.6489    1.1579   -1.6848 O.co2     1 ACZ1       -0.7563
     15 HJ1        -2.8858    1.8644    2.5488 H         1 ACZ1        0.4518
     16 HJ2        -2.8664    0.9855    3.9075 H         1 ACZ1        0.4478
     17 HH         -4.3365    0.0260    2.4279 H         1 ACZ1        0.1117
     18 HZ22       -3.2226   -1.7326    3.7535 H         1 ACZ1        0.1470
     19 HE22       -1.6721   -3.0949    2.6695 H         1 ACZ1        0.1530
     20 HD         -1.2544   -2.6814    0.2710 H         1 ACZ1        0.1587
     21 HE11       -1.9855   -0.6237   -0.8801 H         1 ACZ1        0.1950
     22 HZ11       -3.5355    0.7375    0.2048 H         1 ACZ1        0.1530
     23 HG1         0.6870   -2.0149    1.6419 H         1 ACZ1        0.0477
     24 HG2         0.0272   -0.3683    1.7866 H         1 ACZ1        0.0507
     25 HB1         0.1343   -0.1087   -0.6764 H         1 ACZ1        0.0377
     26 HB2         0.7939   -1.7544   -0.8210 H         1 ACZ1        0.0887
     27 HA          2.7430   -1.0949    0.5617 H         1 ACZ1        0.0867
     28 HN1         1.5001    1.5338    0.4348 H         1 ACZ1        0.4958
     29 HN2         1.5401    0.5883    1.7478 H         1 ACZ1        0.4358
     30 HJ3        -1.5513    0.9056    2.8730 H         1 ACZ1        0.4498
     31 HN3         2.9760    1.2191    1.1611 H         1 ACZ1        0.4248
@<TRIPOS>BOND
     1   12   10 1
     2   12   14 2
     3   12   13 1
     4   10    9 1
     5   10   27 1
     6   10   11 1
     7    9    8 1
     8    9   25 1
     9    9   26 1
    10    5    6 1
    11    5    4 1
    12    5    8 1
    13    5   20 1
    14    6    7 2
    15    6   21 1
    16    4    3 2
    17    4   19 1
    18    8   23 1
    19    8   24 1
    20    2    7 1
    21    2    3 1
    22    2   17 1
    23    2    1 1
    24    7   22 1
    25    3   18 1
    26   15    1 1
    27   16    1 1
    28   30    1 1
    29   28   11 1
    30   29   11 1
    31   31   11 1
@<TRIPOS>SUBSTRUCTURE
     1 ACZ1       10 RESIDUE           4 A     ACZ     0 ROOT
