@<TRIPOS>MOLECULE
IYR.pdb
24 24 1 0 0
SMALL
AMBER ff99SB


@<TRIPOS>ATOM
      1 N          -1.1608   -2.3468    1.5620 N.4       1 IYR1       -0.8346
      2 CA         -1.7083   -1.3766    0.6048 C.3       1 IYR1       -0.0725
      3 CB         -0.6301   -0.9997   -0.4131 C.3       1 IYR1       -0.0451
      4 CG          0.5457   -0.3881    0.3050 C.ar      1 IYR1       -0.1563
      5 CD1         0.5960    0.9764    0.5095 C.ar      1 IYR1       -0.0540
      6 CE1         1.6712    1.5379    1.1703 C.ar      1 IYR1       -0.0641
      7 IE1         1.7426    3.6077    1.4858 I         1 IYR1       -0.1239
      8 CZ          2.7056    0.7307    1.6195 C.ar      1 IYR1        0.1681
      9 OZ          3.7674    1.2815    2.2672 O.3       1 IYR1       -0.4851
     10 CE2         2.6546   -0.6393    1.4094 C.ar      1 IYR1       -0.1580
     11 CD2         1.5762   -1.1962    0.7530 C.ar      1 IYR1       -0.1040
     12 C          -2.8841   -1.9872   -0.1124 C.2       1 IYR1        0.9376
     13 O          -2.9273   -3.1813   -0.2949 O.co2     1 IYR1       -0.8003
     14 OXT        -3.8854   -1.2052   -0.5468 O.co2     1 IYR1       -0.7083
     15 H3         -0.3205   -1.9376    1.9401 H         1 IYR1        0.4238
     16 H2         -0.8762   -3.1525    1.0272 H         1 IYR1        0.4838
     17 HA         -2.0320   -0.4830    1.1387 H         1 IYR1        0.0897
     18 HB1        -0.3074   -1.8933   -0.9461 H         1 IYR1        0.0707
     19 HB2        -1.0368   -0.2806   -1.1232 H         1 IYR1        0.1167
     20 HD1        -0.2094    1.6041    0.1585 H         1 IYR1        0.1570
     21 HZ          4.4211    1.5031    1.5911 H         1 IYR1        0.4350
     22 HE2         3.4588   -1.2699    1.7606 H         1 IYR1        0.1610
     23 HD2         1.5359   -2.2622    0.5882 H         1 IYR1        0.1380
     24 H1         -1.8257   -2.5850    2.2841 H         1 IYR1        0.4258
@<TRIPOS>BOND
     1   12    2 1
     2   12   13 2
     3   12   14 1
     4    2    1 1
     5    2    3 1
     6    2   17 1
     7    3    4 1
     8    3   18 1
     9    3   19 1
    10    4    5 ar
    11    4   11 ar
    12    5    6 ar
    13    5   20 1
    14    6    7 1
    15    6    8 ar
    16    8    9 1
    17    8   10 ar
    18   10   11 ar
    19   10   22 1
    20   11   23 1
    21   15    1 1
    22   24    1 1
    23   16    1 1
    24   21    9 1
@<TRIPOS>SUBSTRUCTURE
     1 IYR1        2 RESIDUE           4 A     IYR     0 ROOT
