@<TRIPOS>MOLECULE
HL2.pdb
23 22 1 0 0
SMALL
AMBER ff99SB


@<TRIPOS>ATOM
      1 N          -0.9130   -0.4080    1.2240 N.4       1 HL2   -0.8276
      2 CA         -0.4160    0.7070    0.4080 C.3       1 HL2   -0.0695
      3 C          -1.4990    1.1600   -0.5370 C.2       1 HL2    0.9326
      4 O          -2.4180    0.4220   -0.8010 O.co2     1 HL2   -0.7983
      5 CB          0.8020    0.2470   -0.3960 C.3       1 HL2    0.1481
      6 CG          1.3400    1.4190   -1.2200 C.3       1 HL2   -0.1147
      7 CD1         1.7110    2.5730   -0.2850 C.3       1 HL2   -0.0871
      8 CD2         2.5810    0.9720   -1.9950 C.3       1 HL2   -0.0931
      9 OH          1.8170   -0.2120    0.4980 O.3       1 HL2   -0.6578
     10 OXT        -1.4380    2.3820   -1.0900 O.co2     1 HL2   -0.7173
     11 HA         -0.1310    1.5340    1.0580 H         1 HL2    0.0947
     12 HB          0.5110   -0.5640   -1.0640 H         1 HL2    0.0637
     13 HG          0.5740    1.7520   -1.9210 H         1 HL2    0.1277
     14 HD11        0.8290    2.8910    0.2670 H         1 HL2    0.0357
     15 HD12        2.4780    2.2390    0.4150 H         1 HL2    0.0237
     16 HD13        2.0950    3.4070   -0.8720 H         1 HL2    0.0467
     17 HD22        2.9620    1.8070   -2.5820 H         1 HL2    0.0487
     18 HD23        3.3470    0.6390   -1.2960 H         1 HL2    0.0177
     19 HH          2.3580   -0.8720    0.0560 H         1 HL2    0.4300
     20 H1         -1.9090   -0.3090    1.3590 H         1 HL2    0.4798
     21 H2         -0.7230   -1.2810    0.7530 H         1 HL2    0.4418
     22 H3         -0.4500   -0.4020    2.1210 H         1 HL2    0.4278
     23 HD21        2.3164    0.1510   -2.6613 H         1 HL2    0.0467
@<TRIPOS>BOND
     1    3    2 1
     2    3    4 2
     3    3   10 1
     4    2    5 1 
     5    2   11 1
     6    2    1 1
     7    5    6 1
     8    5   12 1
     9    5    9 1
    10    7    6 1
    11    7   14 1
    12    7   15 1
    13    7   16 1
    14    8    6 1
    15    8   17 1
    16    8   18 1
    17    6   13 1
    18   20    1 1
    19   21    1 1
    20   22    1 1
    21   19    9 1
    22   23    8 1
@<TRIPOS>SUBSTRUCTURE
     1 HL2     2 RESIDUE           4 A     HL2     0 ROOT
