@<TRIPOS>MOLECULE
QU33.pdb
28 29 1 0 0
SMALL
AMBER ff99SB


@<TRIPOS>ATOM
      1 N          -1.7140   -1.0700    1.1330 N.4       1 QU33   -0.8346
      2 CA         -0.8960    0.0150    0.5930 C.3       1 QU33   -0.0735
      3 C          -0.9290   -0.2390   -0.8320 C.2       1 QU33    0.9376
      4 O          -1.9650   -0.1150   -1.4650 O.co2     1 QU33   -0.7993
      5 CB          0.5240    0.0410    1.2380 C.3       1 QU33   -0.0461
      6 CG          0.4970    0.2600    2.7110 C.ar      1 QU33   -0.2346
      7 CD1         0.5400    1.5630    3.2590 C.ar      1 QU33    0.4102
      8 NE1         0.4920    1.7500    4.6010 N.ar      1 QU33   -0.6450
      9 CE2         0.3640   -0.6180    5.0050 C.ar      1 QU33   -0.1493
     10 CZ          0.4000    0.7210    5.4810 C.ar      1 QU33    0.3906
     11 CJ1         0.2030   -0.0750    7.7750 C.ar      1 QU33   -0.1190
     12 CJ2         0.1710   -1.4040    7.3140 C.ar      1 QU33   -0.1200
     13 OXT         0.0330   -0.6840   -1.4270 O.co2     1 QU33   -0.7073
     14 CD2         0.4230   -0.8310    3.6100 C.ar      1 QU33   -0.0960
     15 CH1         0.3270    0.9850    6.8620 C.ar      1 QU33   -0.1623
     16 CH2         0.2580   -1.6780    5.9350 C.ar      1 QU33   -0.1150
     17 HA         -1.3890    0.9710    0.7930 H         1 QU33    0.0897
     18 H1         -1.7230   -1.0870    2.1570 H         1 QU33    0.4268
     19 H2         -1.3490   -1.9720    0.8120 H         1 QU33    0.4238
     20 H3         -2.6810   -0.9670    0.8120 H         1 QU33    0.4848
     21 HB1         1.0979    0.8460    0.7789 H         1 QU33    0.1207
     22 HB2         1.0212   -0.9070    1.0324 H         1 QU33    0.0717
     23 HD1         0.6118    2.4173    2.6022 H         1 QU33    0.0331
     24 HJ1         0.1321    0.1304    8.8329 H         1 QU33    0.1410
     25 HJ2         0.0795   -2.2165    8.0196 H         1 QU33    0.1400
     26 HD2         0.4115   -1.8396    3.2240 H         1 QU33    0.1400
     27 HH1         0.3664    2.0033    7.2195 H         1 QU33    0.1550
     28 HH2         0.2437   -2.7003    5.5871 H         1 QU33    0.1360
@<TRIPOS>BOND
     1    3    2 1
     2    3    4 2
     3    3   13 1 
     4    2    5 1
     5    2   17 1
     6    2    1 1
     7    5    6 1
     8    7    6 ar
     9    7    8 ar
    10   14    9 ar
    11   14    6 ar
    12    9   16 ar
    13    9   10 ar
    14   15   11 ar
    15   15   10 ar
    16   16   12 ar
    17   11   12 ar
    18   10    8 ar
    19   18    1 1
    20   19    1 1
    21   20    1 1
    22   21    5 1
    23   22    5 1
    24   23    7 1
    25   24   11 1
    26   25   12 1
    27   26   14 1
    28   27   15 1
    29   28   16 1
@<TRIPOS>SUBSTRUCTURE
     1 QU33     2 RESIDUE           4 A     QU33     0 ROOT
