@<TRIPOS>MOLECULE
4HT.pdb
28 29 1 0 0
SMALL
AMBER ff99SB


@<TRIPOS>ATOM
      1 N          -1.5992    4.4010    5.3452 N.4       1 4HT1       -0.8296
      2 CA         -0.4546    3.5674    5.0755 C.3       1 4HT1       -0.0775
      3 C           0.6133    4.3336    4.3096 C.2       1 4HT1        0.9366
      4 O           0.3485    5.1924    3.4747 O.co2     1 4HT1       -0.8023
      5 CB         -0.8761    2.2886    4.3140 C.3       1 4HT1       -0.0242
      6 CG         -1.9292    1.5033    4.9893 C.ar      1 4HT1       -0.1862
      7 CD1        -3.2836    1.6950    4.8500 C.ar      1 4HT1       -0.0910
      8 CD2        -1.7350    0.4201    5.8913 C.ar      1 4HT1       -0.1550
      9 CE2        -3.0022   -0.0195    6.2804 C.ar      1 4HT1        0.0037
     10 CE3        -0.6014   -0.2309    6.4167 C.ar      1 4HT1        0.1651
     11 NE1        -3.9227    0.7729    5.6328 N.ar      1 4HT1       -0.2364
     12 OE3         0.6703    0.1520    6.0759 O.3       1 4HT1       -0.5001
     13 CZ2        -3.1928   -1.0825    7.1722 C.ar      1 4HT1       -0.1790
     14 CZ3        -0.7766   -1.2942    7.3089 C.ar      1 4HT1       -0.1840
     15 CH2        -2.0530   -1.7110    7.6799 C.ar      1 4HT1       -0.0750
     16 OXT         1.8882    4.0023    4.6256 O.co2     1 4HT1       -0.7143
     17 HA         -0.0288    3.2637    6.0318 H         1 4HT1        0.0937
     18 HB1        -1.2453    2.5821    3.3309 H         1 4HT1        0.0717
     19 HB2         0.0023    1.6561    4.1821 H         1 4HT1        0.1037
     20 HD1        -3.7582    2.4432    4.2314 H         1 4HT1        0.1720
     21 HE1        -4.9256    0.6866    5.7230 H         1 4HT1        0.3037
     22 HE3         0.8074    1.0662    6.3308 H         1 4HT1        0.4360
     23 HZ2        -4.1844   -1.4035    7.4564 H         1 4HT1        0.1390
     24 HZ3         0.0874   -1.7986    7.7152 H         1 4HT1        0.1550
     25 HH2        -2.1634   -2.5350    8.3710 H         1 4HT1        0.1380
     26 H1         -2.2914    3.8681    5.8529 H         1 4HT1        0.4278
     27 H2         -1.9953    4.7206    4.4725 H         1 4HT1        0.4808
     28 H3         -1.3138    5.1972    5.8967 H         1 4HT1        0.4278
@<TRIPOS>BOND
     1    3    2 1
     2    3    4 2
     3    3   16 2
     4    2    5 1
     5    2   17 1
     6    2    1 1
     7    5    6 1
     8    5   18 1
     9    5   19 1
    10    7    6 ar
    11    7   20 1
    12    7   11 ar
    13    8    9 ar
    14    8   10 ar
    15    8    6 ar
    16    9   13 ar
    17    9   11 ar
    18   10   14 ar
    19   10   12 1
    20   15   13 ar
    21   15   14 ar
    22   15   25 1
    23   13   23 1
    24   14   24 1
    25   26    1 1
    26   27    1 1
    27   28    1 1
    28   21   11 1
    29   22   12 1
@<TRIPOS>SUBSTRUCTURE
     1 4HT1        2 RESIDUE           4 A     4HT     0 ROOT
