@<TRIPOS>MOLECULE
NLE.pdb
22 21 1 0 0
SMALL
AMBER ff99SB


@<TRIPOS>ATOM
      1 N          22.1880  -19.5900   47.7520 N.4       1 NLE1       -0.8366
      2 CA         21.5330  -19.2300   49.0070 C.3       1 NLE1       -0.0715
      3 C          20.1970  -19.9190   49.1360 C.2       1 NLE1        0.9356
      4 O          19.7650  -20.6780   48.2650 O.co2     1 NLE1       -0.8043
      5 CB         21.2900  -17.6940   49.0850 C.3       1 NLE1       -0.0974
      6 CG         22.4940  -16.7870   48.7700 C.3       1 NLE1       -0.0884
      7 CD         22.0770  -15.3120   48.9100 C.3       1 NLE1       -0.0804
      8 CE         23.3060  -14.4080   48.6990 C.3       1 NLE1       -0.0941
      9 OXT        19.5570  -19.7380   50.1450 O.co2     1 NLE1       -0.7093
     10 HN1        23.0780  -19.1170   47.6880 H         1 NLE1        0.4168
     11 HN2        22.3350  -20.5890   47.7240 H         1 NLE1        0.4878
     12 HN3        21.6040  -19.3140   46.9760 H         1 NLE1        0.4248
     13 HA         22.1680  -19.5580   49.8510 H         1 NLE1        0.0887
     14 HB1        20.9280  -17.4250   50.0970 H         1 NLE1        0.1177
     15 HB2        20.4390  -17.4220   48.4250 H         1 NLE1        0.0547
     16 HG1        22.8340  -16.9740   47.7510 H         1 NLE1        0.0087
     17 HG2        23.3040  -17.0030   49.4670 H         1 NLE1        0.0467
     18 HD1        21.6690  -15.1420   49.9070 H         1 NLE1        0.0537
     19 HD2        21.3200  -15.0760   48.1620 H         1 NLE1        0.0417
     20 HE1        23.9740  -14.8660   47.9700 H         1 NLE1        0.0287
     21 HE2        23.8320  -14.2810   49.6450 H         1 NLE1        0.0357
     22 HE3        22.9810  -13.4340   48.3310 H         1 NLE1        0.0407
@<TRIPOS>BOND
     1    3    2 1
     2    3    4 2
     3    3    9 2
     4    2    5 1
     5    2   13 1
     6    2    1 1
     7    5    6 1
     8    5   14 1
     9    5   15 1
    10    7    8 1
    11    7    6 1
    12    7   18 1
    13    7   19 1
    14    8   20 1
    15    8   21 1
    16    8   22 1
    17    6   16 1
    18    6   17 1
    19   10    1 1
    20   11    1 1
    21   12    1 1
@<TRIPOS>SUBSTRUCTURE
     1 NLE1        2 RESIDUE           4 A     NLE     0 ROOT
