@<TRIPOS>MOLECULE
SME.pdb
21 20 1 0 0
SMALL
AMBER ff99SB


@<TRIPOS>ATOM
      1 N           7.7630   -0.1950  -10.1340 N.4       1 SME   -0.8196
      2 CA          6.9580    0.7810  -10.9220 C.3       1 SME   -0.0755
      3 C           6.1860    1.6820   -9.9460 C.2       1 SME    0.9366
      4 O           5.0880    2.1310  -10.2170 O.co2     1 SME   -0.7253
      5 CB          5.9870   -0.0070  -11.8470 C.3       1 SME   -0.0644
      6 CG          6.7920   -0.9190  -12.7880 C.3       1 SME   -0.1001
      7 CE          6.8680   -2.7680  -14.7730 C.3       1 SME   -0.1248
      8 OE          4.8670   -2.7430  -13.0230 O.2       1 SME   -0.5672
      9 OXT         6.8170    1.9120   -8.8240 O.co2     1 SME   -0.7993
     10 SD          5.6490   -1.8070  -13.8600 S.o       1 SME    0.2636
     11 HA          7.6440    1.3980  -11.4740 H         1 SME    0.0847
     12 HB1         5.3830    0.6740  -12.4290 H         1 SME    0.1267
     13 HB2         5.3240   -0.6170  -11.2520 H         1 SME    0.0497
     14 HG1         7.3670   -1.6340  -12.2170 H         1 SME    0.0857
     15 HG2         7.4620   -0.3310  -13.3980 H         1 SME    0.0937
     16 HE1         7.5700   -2.1000  -15.2510 H         1 SME    0.0887
     17 HE2         6.3680   -3.3610  -15.5240 H         1 SME    0.0957
     18 HE3         7.3960   -3.4200  -14.0930 H         1 SME    0.0947
     19 H1          8.0650   -0.9470  -10.7370 H         1 SME    0.4298
     20 H2          8.5710    0.2710   -9.7460 H         1 SME    0.4758
     21 H3          7.1990   -0.5700   -9.3850 H         1 SME    0.4488
@<TRIPOS>BOND
     1    1    2 1
     2    1   19 1
     3    1   20 1
     4    1   21 1
     5    2    3 1
     6    2    5 1
     7    2   11 1
     8    3    4 2
     9    3    9 1
    10    5    6 1
    11    5   12 1
    12    5   13 1
    13    6   10 1
    14    6   14 1
    15    6   15 1
    16    7   10 1
    17    7   16 1
    18    7   17 1
    19    7   18 1
    20    8   10 2
@<TRIPOS>SUBSTRUCTURE
     1 SME     2 RESIDUE           4 A     SME     0 ROOT
