@<TRIPOS>MOLECULE
ASN.pdb
 17 16 0 0 0
SMALL
GASTEIGER

@<TRIPOS>ATOM
      1  N          0.2090   -1.7480   -0.6130 N.4     1  ASN1        0.3874
      2  CA         0.7930   -0.4100   -0.6130 C.3     1  ASN1        0.0288
      3  O          2.9060   -1.5510   -0.6130 O.co2   1  ASN1       -0.2482
      4  CB         0.2780    0.3810    0.6240 C.3     1  ASN1        0.0209
      5  CG        -1.2400    0.5320    0.7680 C.2     1  ASN1        0.2094
      6  ND2       -1.8570    1.4230    0.0390 N.am    1  ASN1       -0.3294
      7  OD1       -1.8950   -0.1680    1.5260 O.2     1  ASN1       -0.2761
      8  C          2.3300   -0.4970   -0.6130 C.2     1  ASN1        0.3425
      9  OXT        3.0950    0.7110   -0.6130 O.co2   1  ASN1       -0.2482
     10  H3         0.8190   -2.6390   -0.6130 H       1  ASN1       -0.0889
     11  HA         0.4890    0.1050   -1.5430 H       1  ASN1        0.0203
     12  HB1        0.7300    1.3900    0.6520 H       1  ASN1        0.0347
     13  HB2        0.6390   -0.1060    1.5510 H       1  ASN1        0.0347
     14 HD21       -2.8750    1.3380    0.0980 H       1  ASN1        0.1449
     15 HD22       -1.2960    1.9270   -0.6470 H       1  ASN1        0.1449
     16  H1        -0.3710   -1.8030    0.2120 H       1  ASN1       -0.0889
     17  H2        -0.4040   -1.8060   -1.4140 H       1  ASN1       -0.0889
@<TRIPOS>BOND
     1     8     9    1
     2     2     4    1
     3     2     8    1
     4     2    11    1
     5     4     5    1
     6     4    12    1
     7     4    13    1
     8     5     6   am
     9     5     7    2
    10     1    17    1
    11     1    16    1
    12     1     2    1
    13     1    10    1
    14     6    14    1
    15     6    15    1
    16     3     8    2
