@<TRIPOS>MOLECULE
TTQ.pdb
30 31 1 0 0
SMALL
AMBER ff99SB


@<TRIPOS>ATOM
      1 N           2.7440    2.4300    5.4600 N.4       1 TTQ1       -0.8326
      2 CA          2.1450    1.3590    6.2160 C.3       1 TTQ1       -0.0635
      3 C           3.2070    0.4910    6.8740 C.2       1 TTQ1        0.9336
      4 O           4.2940    0.2580    6.3550 O.co2     1 TTQ1       -0.8083
      5 CB          1.2120    0.5120    5.3180 C.3       1 TTQ1       -0.0182
      6 CG          0.1280    1.2830    4.6770 C.ar      1 TTQ1       -0.1842
      7 CD1         0.2110    1.9360    3.4690 C.ar      1 TTQ1       -0.0930
      8 CD2        -1.1850    1.4860    5.1880 C.ar      1 TTQ1       -0.1140
      9 CE2        -1.8710    2.2700    4.2600 C.ar      1 TTQ1       -0.0023
     10 CE3        -1.8570    1.0750    6.3580 C.ar      1 TTQ1       -0.0620
     11 NE1        -0.9990    2.5280    3.2250 N.ar      1 TTQ1       -0.2264
     12 CZ2        -3.2000    2.6660    4.4400 C.ar      1 TTQ1        0.0081
     13 CZ3        -3.1870    1.4630    6.5520 C.ar      1 TTQ1       -0.1900
     14 OZ2        -3.8460    3.4350    3.5110 O.3       1 TTQ1       -0.5171
     15 CH2        -3.8470    2.2480    5.6070 C.ar      1 TTQ1        0.1266
     16 OXT         2.8670   -0.0030    8.0890 O.co2     1 TTQ1       -0.7143
     17 N2         -5.1910    2.6170    5.8420 N.pl3     1 TTQ1       -0.8142
     18 HA          1.5390    1.8030    7.0050 H         1 TTQ1        0.0867
     19 HB1         0.7600   -0.2670    5.9320 H         1 TTQ1        0.1107
     20 HB2         1.8110    0.0400    4.5390 H         1 TTQ1        0.0677
     21 HD1         1.0780    1.9740    2.8260 H         1 TTQ1        0.1710
     22 HE1        -1.2210    3.0760    2.4060 H         1 TTQ1        0.3117
     23 HE3        -1.3510    0.4690    7.0940 H         1 TTQ1        0.1460
     24 HZ2        -4.6140    2.9610    3.1820 H         1 TTQ1        0.4170
     25 HZ3        -3.7080    1.1520    7.4440 H         1 TTQ1        0.1380
     26 H1          2.0180    2.9890    5.0350 H         1 TTQ1        0.4278
     27 H2          3.3360    2.0440    4.7400 H         1 TTQ1        0.4798
     28 H3          3.2960    3.0090    6.0760 H         1 TTQ1        0.4248
     29 H21        -5.6850    3.1850    5.1680 H         1 TTQ1        0.3938
     30 H22        -5.6590    2.3150    6.6850 H         1 TTQ1        0.3938
@<TRIPOS>BOND
     1    3    2 1
     2    3    4 2
     3    3   16 2
     4    2    5 1
     5    2   18 1
     6    2    1 1
     7    5    6 1
     8    5   19 1
     9    5   20 1
    10    7    6 ar
    11    7   21 1
    12    7   11 ar
    13    8    9 ar
    14    8   10 ar
    15    8    6 ar
    16    9   12 ar
    17    9   11 ar
    18   10   13 ar
    19   10   23 1
    20   15   12 ar
    21   15   13 ar
    22   15   17 1
    23   12   14 1
    24   13   25 1
    25   26    1 1
    26   27    1 1
    27   29   17 1
    28   30   17 1
    29   28    1 1
    30   22   11 1
    31   24   14 1
@<TRIPOS>SUBSTRUCTURE
     1 TTQ1        2 RESIDUE           4 A     TTQ     0 ROOT
