@<TRIPOS>MOLECULE
ALA.pdb
17 17 1 0 0
SMALL
AMBER ff99SB


@<TRIPOS>ATOM
      1 CA          1.0022    3.9142    0.0722 C.3       1 THG2    0.0238
      2 C          -0.1153    4.6600   -0.4913 C.2       1 THG2    0.9266
      3 CB          0.8057    2.4493    0.0360 C.ar      1 THG2   -0.2004
      4 O          -0.8297    5.4135    0.1657 O.co2     1 THG2   -0.7953
      5 OXT        -0.3831    4.5530   -1.6768 O.co2     1 THG2   -0.7053
      6 N           1.2994    4.3050    1.4560 N.4       1 THG2   -0.8386
      7 CD1         0.0208   -0.0379    0.0404 C.ar      1 THG2   -0.2231
      8 SG1        -0.7018    1.5541    0.1643 S.2       1 THG2    0.2552
      9 CG2         1.8217    1.4893   -0.0678 C.ar      1 THG2   -0.1850
     10 CD2         1.3995    0.1490   -0.0709 C.ar      1 THG2   -0.1560
     11 HA          1.8831    4.1411   -0.5283 H         1 THG2    0.0987
     12 HD1        -0.5012   -0.9833    0.0486 H         1 THG2    0.1770
     13 HG2         2.8640    1.7626   -0.1408 H         1 THG2    0.1350
     14 HD2         2.0913   -0.6762   -0.1534 H         1 THG2    0.1540
     15 H1          2.0784    3.7618    1.7999 H         1 THG2    0.4268
     16 H2          1.5349    5.2867    1.4851 H         1 THG2    0.4238
     17 H3          0.4893    4.1358    2.0350 H         1 THG2    0.4838
@<TRIPOS>BOND
     1    1    2 1
     2    1    3 1
     3    2    4 2
     4    2    5 1
     5    1    6 1
     6    8    3 ar
     7    3    9 ar
     8    7    8 ar
     9    9   10 ar
    10    7   10 ar
    11   11    1 1
    12   12    7 1
    13   13    9 1
    14   14   10 1
    15   15    6 1
    16   16    6 1
    17   17    6 1
@<TRIPOS>SUBSTRUCTURE
     1 THG2     1 RESIDUE           4 A     THG2     0 ROOT
