@<TRIPOS>MOLECULE
004.pdb
20 20 1 0 0
SMALL
AMBER ff99SB


@<TRIPOS>ATOM
      1 CB          1.3435    2.4123   -0.0133 C.ar      1 004   -0.1253
      2 CG1        -0.0719    2.3405    0.0262 C.ar      1 004   -0.0940
      3 CD1        -0.7400    1.1025    0.0121 C.ar      1 004   -0.1340
      4 CE         -0.0064   -0.0947   -0.0012 C.ar      1 004   -0.1090
      5 CD2         1.3974   -0.0512   -0.0029 C.ar      1 004   -0.1370
      6 CG2         2.0628    1.1890   -0.0102 C.ar      1 004   -0.1150
      7 CA          2.0908    3.7125   -0.0203 C.3       1 004   -0.0182
      8 C           1.4560    4.8356   -0.6967 C.2       1 004    0.9376
      9 N           2.3527    4.1246    1.3592 N.4       1 004   -0.8356
     10 O           0.4997    5.4300   -0.2133 O.co2     1 004   -0.8123
     11 OXT         1.9037    5.2737   -1.7432 O.co2     1 004   -0.6963
     12 HA          2.9972    3.5224   -0.5950 H         1 004    0.0947
     13 H1          2.4630    3.3057    1.9401 H         1 004    0.4198
     14 H2          3.1981    4.6763    1.3911 H         1 004    0.4278
     15 H3          1.5778    4.6763    1.6987 H         1 004    0.4818
     16 HG1        -0.6479    3.2531    0.0679 H         1 004    0.1720
     17 HD1        -1.8196    1.0729    0.0115 H         1 004    0.1410
     18 HE         -0.5195   -1.0450   -0.0101 H         1 004    0.1360
     19 HD2         1.9662   -0.9693    0.0014 H         1 004    0.1360
     20 HG2         3.1426    1.2101   -0.0135 H         1 004    0.1290
@<TRIPOS>BOND
     1    1    2 ar
     2    1    6 ar
     3    2    3 ar
     4    3    4 ar
     5    4    5 ar
     6    5    6 ar
     7    1    7 1
     8    7    8 1
     9    7    9 1
    10    8   10 2
    11    8   11 1
    12    7   12 1
    13    9   13 1
    14    9   14 1
    15    9   15 1
    16   16    2 1
    17   17    3 1
    18   18    4 1
    19   19    5 1
    20   20    6 1
@<TRIPOS>SUBSTRUCTURE
     1 004     7 RESIDUE           4 A     004     0 ROOT
