@<TRIPOS>MOLECULE
OBF.pdb
16 15 1 0 0
SMALL
AMBER ff99SB


@<TRIPOS>ATOM
      1 N          -0.6604   -1.4500   -0.5641 N.4       1 OBF1       -0.8346
      2 CA         -0.7015   -0.1797    0.1726 C.3       1 OBF1       -0.0855
      3 CB          0.6901    0.4569    0.1717 C.3       1 OBF1       -0.1444
      4 CG          1.6579   -0.4343    0.9537 C.3       1 OBF1        0.3809
      5 FG1         1.8084   -1.6551    0.2890 F         1 OBF1       -0.2763
      6 FG2         2.9007    0.2017    1.0504 F         1 OBF1       -0.2313
      7 C          -1.6813    0.7541   -0.4911 C.2       1 OBF1        0.9446
      8 O          -2.0080    0.5709   -1.6387 O.co2     1 OBF1       -0.7883
      9 HN3        -1.5510   -1.9205   -0.5234 H         1 OBF1        0.4298
     10 HA         -1.0154   -0.3652    1.1993 H         1 OBF1        0.0927
     11 HB1         1.0412    0.5613   -0.8556 H         1 OBF1        0.0837
     12 HB2         0.6406    1.4392    0.6409 H         1 OBF1        0.1377
     13 HG          1.2618   -0.6110    1.9532 H         1 OBF1        0.0787
     14 HN1        -0.3706   -1.3042   -1.5200 H         1 OBF1        0.4848
     15 OXT        -2.1896    1.7889    0.1952 O.co2     1 OBF1       -0.7053
     16 HN2         0.0252   -2.0439   -0.1195 H         1 OBF1        0.4328
@<TRIPOS>BOND
     1    7    2 1
     2    7    8 2
     3    7   15 1
     4    2    1 1
     5    2    3 1
     6    2   10 1
     7    3    4 1
     8    3   11 1
     9    3   12 1
    10    4    5 1
    11    4    6 1
    12    4   13 1
    13   16    1 1
    14    9    1 1
    15   14    1 1
@<TRIPOS>SUBSTRUCTURE
     1 OBF1        2 RESIDUE           4 A     OBF     0 ROOT
