@<TRIPOS>MOLECULE
LEU.pdb
 22 21 0 0 0
SMALL
GASTEIGER

@<TRIPOS>ATOM
      1  N          0.6780   -2.1280   -0.8940 N.4     1  LEU1        0.3871
      2  CA         1.2460   -0.7830   -0.8940 C.3     1  LEU1        0.0207
      3  O          3.3770   -1.9070   -0.8940 O.co2   1  LEU1       -0.2483
      4  CB         0.7180    0.0330    0.3200 C.3     1  LEU1       -0.0536
      5  CG        -0.8170    0.2180    0.4640 C.3     1  LEU1       -0.0477
      6  CD1       -1.1290    1.1390    1.6520 C.3     1  LEU1       -0.0627
      7  CD2       -1.4700    0.7780   -0.8110 C.3     1  LEU1       -0.0627
      8  C          2.7850   -0.8610   -0.8940 C.2     1  LEU1        0.3420
      9  OXT        3.5370    0.3550   -0.8940 O.co2   1  LEU1       -0.2483
     10  H3         1.2670   -2.9670   -0.8940 H       1  LEU1       -0.0889
     11  HA         0.9530   -0.2800   -1.8330 H       1  LEU1        0.0198
     12  HB1        1.1880    1.0360    0.3000 H       1  LEU1        0.0257
     13  HB2        1.0970   -0.4320    1.2520 H       1  LEU1        0.0257
     14  HG        -1.2660   -0.7750    0.6760 H       1  LEU1        0.0295
     15 HD11       -0.7100    0.7460    2.5980 H       1  LEU1        0.0232
     16 HD12       -0.7190    2.1570    1.5120 H       1  LEU1        0.0232
     17 HD13       -2.2180    1.2450    1.8100 H       1  LEU1        0.0232
     18 HD21       -1.0170    1.7350   -1.1280 H       1  LEU1        0.0232
     19 HD22       -1.3710    0.0710   -1.6560 H       1  LEU1        0.0232
     20 HD23       -2.5550    0.9470   -0.6800 H       1  LEU1        0.0232
     21  H1         0.0980   -2.1900   -1.7190 H       1  LEU1       -0.0889
     22  H2         0.0660   -2.1930   -0.0930 H       1  LEU1       -0.0889
@<TRIPOS>BOND
     1     8     9    1
     2     2     4    1
     3     2    11    1
     4     2     8    1
     5     4    12    1
     6     4    13    1
     7     4     5    1
     8     6    16    1
     9     6    17    1
    10     6    15    1
    11     7    18    1
    12     7    19    1
    13     7    20    1
    14     5     6    1
    15     5    14    1
    16     5     7    1
    17     1    10    1
    18     1     2    1
    19     1    22    1
    20     1    21    1
    21     3     8    2
