@<TRIPOS>MOLECULE
2AG.pdb
17 16 1 0 0
SMALL
AMBER ff99SB


@<TRIPOS>ATOM
      1 CA          0.2382   -0.4939   -0.1229 C.3       1 2AG   -0.0685
      2 C          -0.0104   -0.7796    1.2661 C.2       1 2AG    0.9366
      3 CB          0.1740   -1.7198   -1.0832 C.3       1 2AG   -0.0672
      4 O           0.3666   -1.8218    1.7645 O.co2     1 2AG   -0.8033
      5 OXT        -0.3901    0.1086    2.0094 O.co2     1 2AG   -0.7093
      6 CG          0.3272   -1.3241   -2.4770 C.2       1 2AG   -0.2002
      7 CD          1.3382   -1.7114   -3.2639 C.2       1 2AG   -0.2220
      8 N           1.5841    0.0625   -0.0414 N.4       1 2AG   -0.8356
      9 HA         -0.4539    0.2749   -0.4665 H         1 2AG    0.0887
     10 HB1         0.9737   -2.4134   -0.8236 H         1 2AG    0.0667
     11 HB2        -0.7862   -2.2203   -0.9584 H         1 2AG    0.1187
     12 HG         -0.4242   -0.6758   -2.9031 H         1 2AG    0.1270
     13 HD1         1.3835   -1.3757   -4.2894 H         1 2AG    0.1200
     14 HD2         2.1087   -2.3596   -2.8734 H         1 2AG    0.1160
     15 HN1         1.9006    0.3163   -0.9663 H         1 2AG    0.4238
     16 HN2         1.5739    0.8829    0.5476 H         1 2AG    0.4248
     17 HN3         2.2099   -0.6262    0.3513 H         1 2AG    0.4848
@<TRIPOS>BOND
     1    1    2 1
     2    1    3 1
     3    2    4 2
     4    2    5 1
     5    3    6 1
     6    6    7 2
     7    1    8 1
     8    9    1 1
     9   10    3 1
    10   11    3 1
    11   12    6 1
    12   13    7 1
    13   14    7 1
    14   15    8 1
    15   16    8 1
    16   17    8 1
@<TRIPOS>SUBSTRUCTURE
     1 2AG     1 RESIDUE           4 A     2AG     0 ROOT
