@<TRIPOS>MOLECULE
4IN.pdb
29 30 1 0 0
SMALL
AMBER ff99SB


@<TRIPOS>ATOM
      1 N          -2.1825   -1.3579    1.1039 N.4       1 4IN1       -0.8306
      2 CA         -1.9349   -0.3307    0.0836 C.3       1 4IN1       -0.0705
      3 CB         -0.8941   -0.8439   -0.9139 C.3       1 4IN1       -0.0192
      4 CG          0.4281   -1.0252   -0.2140 C.ar      1 4IN1       -0.1732
      5 CD1         0.9404   -2.1796    0.2380 C.ar      1 4IN1        0.0172
      6 NE1         2.1602   -1.9529    0.8182 N.ar      1 4IN1       -0.2374
      7 CE2         2.4682   -0.6123    0.7498 C.ar      1 4IN1        0.0097
      8 CZ2         3.5590    0.1409    1.1764 C.ar      1 4IN1       -0.1970
      9 CH2         3.5834    1.5012    0.9626 C.ar      1 4IN1       -0.0620
     10 CZ3         2.5298    2.1376    0.3225 C.ar      1 4IN1       -0.2330
     11 CE3         1.4345    1.4119   -0.1106 C.ar      1 4IN1        0.1976
     12 NZ1         0.3760    2.0531   -0.7529 N.pl3     1 4IN1       -0.8292
     13 CD2         1.3999    0.0254    0.0967 C.ar      1 4IN1       -0.1370
     14 C          -3.2192   -0.0231   -0.6425 C.2       1 4IN1        0.9336
     15 OXT        -3.3472    1.1292   -1.3189 O.co2     1 4IN1       -0.7203
     16 O          -4.1315   -0.8132   -0.6165 O.co2     1 4IN1       -0.8053
     17 H3         -2.8008   -1.0124    1.8225 H         1 4IN1        0.4268
     18 H2         -2.5476   -2.2005    0.6861 H         1 4IN1        0.4788
     19 HA         -1.5626    0.5751    0.5623 H         1 4IN1        0.0997
     20 HB1        -1.2231   -1.7995   -1.3220 H         1 4IN1        0.0687
     21 HB2        -0.7805   -0.1223   -1.7239 H         1 4IN1        0.0987
     22 HD1         0.4618   -3.1442    0.1577 H         1 4IN1        0.0398
     23 HE1         2.7234   -2.6344    1.2173 H         1 4IN1        0.3007
     24 HZ2         4.3848   -0.3424    1.6753 H         1 4IN1        0.1370
     25 HH2         4.4329    2.0782    1.2966 H         1 4IN1        0.1330
     26 HZ3         2.5650    3.2055    0.1627 H         1 4IN1        0.1350
     27 HZ11        0.3693    3.0208   -0.8307 H         1 4IN1        0.3998
     28 HZ12       -0.3534    1.5326   -1.1240 H         1 4IN1        0.4098
     29 H1         -1.2986   -1.5842    1.5368 H         1 4IN1        0.4288
@<TRIPOS>BOND
     1   14    2 1
     2   14   16 2
     3   14   15 1
     4    2    3 1
     5    2   19 1
     6    2    1 1
     7    3    4 1
     8    3   20 1
     9    3   21 1
    10    5    4 ar
    11    5   22 1
    12    5    6 ar
    13   13    7 ar
    14   13   11 ar
    15   13    4 ar
    16    7    8 ar
    17    7    6 ar
    18   11   10 ar
    19   11   12 1
    20    9    8 ar
    21    9   10 ar
    22    9   25 1
    23    8   24 1
    24   10   26 1
    25   29    1 1
    26   18    1 1
    27   17    1 1
    28   23    6 1
    29   27   12 1
    30   28   12 1
@<TRIPOS>SUBSTRUCTURE
     1 4IN1        2 RESIDUE           4 A     4IN     0 ROOT
