@<TRIPOS>MOLECULE
3GL.pdb
19 18 1 0 0
SMALL
AMBER ff99SB


@<TRIPOS>ATOM
      1 N           1.8710   -0.7430    0.8210 N.4       1 3GL1       -0.8276
      2 CA          1.1250   -0.0970   -0.2680 C.3       1 3GL1       -0.0215
      3 C           2.0070    0.9170   -0.9490 C.2       1 3GL1        0.9186
      4 CB         -0.1100    0.6020    0.3040 C.3       1 3GL1       -0.0914
      5 CG         -1.0640   -0.4430    0.8860 C.3       1 3GL1       -0.0169
      6 OH         -1.5560   -1.2750   -0.1670 O.3       1 3GL1       -0.6928
      7 CD         -2.2200    0.2520    1.5580 C.2       1 3GL1        0.9066
      8 OE1        -2.0070    1.0110    2.6440 O.co2     1 3GL1       -0.7983
      9 OE2        -3.3390    0.1250    1.1190 O.co2     1 3GL1       -0.8353
     10 O           2.9800    1.3510   -0.3770 O.co2     1 3GL1       -0.8473
     11 OXT         1.7120    1.3390   -2.1880 O.co2     1 3GL1       -0.7413
     12 HN1         2.1710   -0.0650    1.5050 H         1 3GL1        0.4608
     13 HN2         1.3230   -1.4730    1.2510 H         1 3GL1        0.4498
     14 HA          0.8130   -0.8510   -0.9920 H         1 3GL1        0.0857
     15 HB1         0.1960    1.2930    1.0910 H         1 3GL1        0.0687
     16 HB2        -0.6140    1.1550   -0.4880 H         1 3GL1        0.0957
     17 HG         -0.5340   -1.0540    1.6160 H         1 3GL1        0.0217
     18 HH         -2.0390   -0.7970   -0.8530 H         1 3GL1        0.4500
     19 HN3         2.6960   -1.1680    0.4220 H         1 3GL1        0.4148
@<TRIPOS>BOND
     1    3    2 1
     2    3   10 2
     3    3   11 1
     4    2    4 1
     5    2   14 1
     6    2    1 1
     7    4    5 1
     8    4   15 1
     9    4   16 1
    10    7    5 1
    11    7    8 2
    12    7    9 2
    13    5   17 1
    14    5    6 1
    15   18    6 1
    16   12    1 1
    17   13    1 1
    18   19    1 1
@<TRIPOS>SUBSTRUCTURE
     1 3GL1        2 RESIDUE           4 A     3GL     0 ROOT
