@<TRIPOS>MOLECULE
HHK.pdb
31 30 1 0 0
SMALL
AMBER ff99SB


@<TRIPOS>ATOM
      1 N           5.7220   -2.8350   -2.6100 N.4       1 HHK1       -0.8326
      2 CA          5.6880   -4.0480   -1.7900 C.3       1 HHK1       -0.0005
      3 CB          4.4060   -4.8350   -2.0920 C.3       1 HHK1       -0.0864
      4 CG          3.1350   -4.0750   -1.6920 C.3       1 HHK1       -0.0804
      5 CD          1.8840   -4.9200   -1.9460 C.3       1 HHK1       -0.0874
      6 CE          0.5830   -4.2190   -1.5420 C.3       1 HHK1       -0.0964
      7 CZ         -0.7090   -4.9910   -1.8290 C.3       1 HHK1       -0.1024
      8 CH         -1.9740   -4.2030   -1.4860 C.3       1 HHK1        0.1088
      9 NJ         -3.1710   -4.9920   -1.7610 N.4       1 HHK1       -0.8606
     10 C           6.9260   -4.8510   -2.1510 C.2       1 HHK1        0.9096
     11 O           7.7380   -4.5410   -3.0130 O.co2     1 HHK1       -0.8483
     12 OXT         7.0600   -5.9630   -1.3830 O.co2     1 HHK1       -0.7703
     13 HA          5.7170   -3.7810   -0.7340 H         1 HHK1        0.1187
     14 HB1         4.3670   -5.0400   -3.1610 H         1 HHK1        0.0577
     15 HB2         4.4370   -5.7810   -1.5510 H         1 HHK1        0.0607
     16 HG1         3.1880   -3.8260   -0.6320 H         1 HHK1        0.0797
     17 HG2         3.0700   -3.1550   -2.2730 H         1 HHK1        0.0667
     18 HD1         1.8340   -5.1520   -3.0100 H         1 HHK1        0.0557
     19 HD2         1.9700   -5.8510   -1.3870 H         1 HHK1        0.0427
     20 HE1         0.6270   -4.0280   -0.4700 H         1 HHK1        0.0637
     21 HE2         0.5340   -3.2620   -2.0600 H         1 HHK1        0.0697
     22 HZ1        -0.7340   -5.2400   -2.8900 H         1 HHK1        0.0877
     23 HZ2        -0.7020   -5.9150   -1.2510 H         1 HHK1        0.0667
     24 HH1        -1.9560   -3.9420   -0.4280 H         1 HHK1        0.0987
     25 HH2        -2.0010   -3.2900   -2.0800 H         1 HHK1        0.0897
     26 H1          4.9130   -2.2660   -2.4040 H         1 HHK1        0.4428
     27 H2          5.7140   -3.0890   -3.5880 H         1 HHK1        0.4788
     28 H3          6.5620   -2.3130   -2.4050 H         1 HHK1        0.4528
     29 HJ1        -3.9920   -4.4520   -1.5270 H         1 HHK1        0.4388
     30 HJ2        -3.1530   -5.8350   -1.2060 H         1 HHK1        0.4988
     31 HJ3        -3.1950   -5.2350   -2.7410 H         1 HHK1        0.4808
@<TRIPOS>BOND
     1   10    2 1
     2   10   11 2
     3   10   12 1
     4    2    1 1
     5    2    3 1
     6    2   13 1
     7    3    4 1
     8    3   14 1
     9    3   15 1
    10    5    4 1
    11    5    6 1
    12    5   18 1
    13    5   19 1
    14    6    7 1
    15    6   21 1
    16    6   20 1
    17    4   17 1
    18    4   16 1
    19    8    7 1
    20    8    9 1
    21    8   24 1
    22    8   25 1
    23    7   22 1
    24    7   23 1
    25   26    1 1
    26   27    1 1
    27   28    1 1
    28   29    9 1
    29   30    9 1
    30   31    9 1
@<TRIPOS>SUBSTRUCTURE
     1 HHK1        2 RESIDUE           4 A     HHK     0 ROOT
