@<TRIPOS>MOLECULE
HQA.pdb
29 30 1 0 0
SMALL
AMBER ff99SB


@<TRIPOS>ATOM
      1 OXT        -4.7448   -0.2791   -1.0263 O.co2     1 HQA1       -0.7083
      2 C          -3.9043    0.6886   -1.4252 C.2       1 HQA1        0.9386
      3 O          -4.3410    1.7239   -1.8677 O.co2     1 HQA1       -0.7983
      4 CA         -2.4150    0.4807   -1.3248 C.3       1 HQA1       -0.0735
      5 N          -1.7294    1.4166   -2.2278 N.4       1 HQA1       -0.8346
      6 CB         -1.9612    0.7365    0.1141 C.3       1 HQA1       -0.0461
      7 CG         -0.4953    0.4116    0.2434 C.ar      1 HQA1       -0.2286
      8 CD1         0.4610    1.3982    0.0146 C.ar      1 HQA1        0.3842
      9 NE1         1.7446    1.1529    0.1183 N.ar      1 HQA1       -0.6630
     10 CZ1         2.1942   -0.0597    0.4490 C.ar      1 HQA1        0.3236
     11 CH1         3.5773   -0.3187    0.5594 C.ar      1 HQA1        0.0968
     12 OH1         4.4772    0.6715    0.3287 O.3       1 HQA1       -0.4921
     13 CJ          4.0058   -1.5695    0.9006 C.ar      1 HQA1       -0.1660
     14 CH2         3.0975   -2.5974    1.1412 C.ar      1 HQA1       -0.0800
     15 CZ2         1.7554   -2.3839    1.0431 C.ar      1 HQA1       -0.1520
     16 CE2         1.2766   -1.1105    0.6948 C.ar      1 HQA1       -0.1103
     17 CD2        -0.1030   -0.8502    0.5908 C.ar      1 HQA1       -0.0700
     18 HA         -2.1705   -0.5427   -1.6069 H         1 HQA1        0.0907
     19 HN1        -1.9394    2.3716   -1.9852 H         1 HQA1        0.4848
     20 HN2        -0.7324    1.2543   -2.2267 H         1 HQA1        0.4238
     21 HB1        -2.1247    1.7833    0.3675 H         1 HQA1        0.0727
     22 HB2        -2.5347    0.1042    0.7935 H         1 HQA1        0.1197
     23 HD1         0.1361    2.3920   -0.2552 H         1 HQA1        0.0191
     24 HH1         4.7111    1.1815    1.1160 H         1 HQA1        0.4450
     25 HJ          5.0646   -1.7655    0.9839 H         1 HQA1        0.1590
     26 HH2         3.4620   -3.5784    1.4088 H         1 HQA1        0.1430
     27 HZ2         1.0631   -3.1907    1.2321 H         1 HQA1        0.1430
     28 HD2        -0.8298   -1.6280    0.7716 H         1 HQA1        0.1540
     29 HN3        -2.0701    1.2502   -3.1636 H         1 HQA1        0.4268
@<TRIPOS>BOND
     1    2    4 1
     2    2    3 2
     3    2    1 1
     4    4    6 1
     5    4   18 1
     6    4    5 1
     7    6    7 1
     8    6   21 1
     9    6   22 1
    10    8    7 ar
    11    8   23 1
    12    8    9 ar
    13   17   16 ar
    14   17    7 ar
    15   17   28 1
    16   16   10 ar
    17   16   15 ar
    18   11   13 ar
    19   11   10 ar
    20   11   12 1
    21   14   13 ar
    22   14   15 ar
    23   14   26 1
    24   13   25 1
    25   10    9 ar
    26   15   27 1
    27   24   12 1
    28   19    5 1
    29   20    5 1
    30   29    5 1
@<TRIPOS>SUBSTRUCTURE
     1 HQA1        4 RESIDUE           4 A     HQA     0 ROOT
