@<TRIPOS>MOLECULE
FLA.pdb
13 12 1 0 0
SMALL
AMBER ff99SB


@<TRIPOS>ATOM
      1 N          -0.4998    0.6739    1.2023 N.4       1 FLA   -0.8196
      2 CA          0.0218   -0.0395    0.0246 C.3       1 FLA   -0.1705
      3 O           0.0086   -2.3304    0.5449 O.co2     1 FLA   -0.6583
      4 CB          1.5781    0.0262   -0.0045 C.3       1 FLA    0.6459
      5 C          -0.5425   -1.3818    0.0007 C.2       1 FLA    0.9656
      6 OXT        -1.6091   -1.6009   -0.5548 O.co2     1 FLA   -0.7723
      7 FG1         2.0788   -0.6032   -1.1194 F         1 FLA   -0.1813
      8 FG2         2.1413   -0.5536    1.1096 F         1 FLA   -0.2313
      9 FG3         2.0057    1.3324   -0.0519 F         1 FLA   -0.2693
     10 HA         -0.3427    0.4826   -0.8601 H         1 FLA    0.1247
     11 H1         -0.1146    1.6072    1.2291 H         1 FLA    0.4258
     12 H2         -0.2358    0.1768    2.0409 H         1 FLA    0.4438
     13 H3         -1.5068    0.7268    1.1452 H         1 FLA    0.4988
@<TRIPOS>BOND
     1    3    5 2
     2    5    2 1
     3    5    6 1
     4    2    1 1
     5    2    4 1
     6    4    7 1
     7    4    8 1
     8    4    9 1
     9   10    2 1
    10   11    1 1
    11   12    1 1
    12   13    1 1
@<TRIPOS>SUBSTRUCTURE
     1 FLA     2 RESIDUE           4 A     FLA     0 ROOT
