@<TRIPOS>MOLECULE
HLU.pdb
23 22 1 0 0
SMALL
AMBER ff99SB


@<TRIPOS>ATOM
      1 N           3.2535    0.3841   -2.0570 N.4       1 HLU1       -0.8256
      2 CA          3.6113   -0.8555   -1.3669 C.3       1 HLU1       -0.1245
      3 C           5.0944   -0.8119   -1.0400 C.2       1 HLU1        0.9356
      4 O           5.9647   -0.3142   -1.7419 O.co2     1 HLU1       -0.7923
      5 CB          3.2024   -2.1166   -2.1593 C.3       1 HLU1        0.1671
      6 CG          1.7380   -2.2174   -2.6550 C.3       1 HLU1       -0.0787
      7 CD1         1.3678   -1.1333   -3.6681 C.3       1 HLU1       -0.0991
      8 CD2         1.4774   -3.5978   -3.2810 C.3       1 HLU1       -0.0771
      9 OH          3.4939   -3.2521   -1.3309 O.3       1 HLU1       -0.6048
     10 OXT         5.3668   -1.3768    0.1676 O.co2     1 HLU1       -0.7283
     11 HA          3.0690   -0.8722   -0.4225 H         1 HLU1        0.1037
     12 HB          3.8507   -2.1765   -3.0346 H         1 HLU1        0.0577
     13 HG          1.0817   -2.1096   -1.7914 H         1 HLU1        0.0207
     14 HD11        1.5497   -0.1520   -3.2316 H         1 HLU1        0.0457
     15 HD12        1.9765   -1.2513   -4.5647 H         1 HLU1        0.0047
     16 HD13        0.3133   -1.2259   -3.9301 H         1 HLU1        0.0587
     17 HD21        1.7384   -4.3763   -2.5657 H         1 HLU1        0.0587
     18 HD22        2.0856   -3.7088   -4.1794 H         1 HLU1        0.0517
     19 HD23        0.4231   -3.6840   -3.5451 H         1 HLU1        0.0287
     20 HH          3.7826   -3.9839   -1.8807 H         1 HLU1        0.4580
     21 H1          2.2690    0.3727   -2.2824 H         1 HLU1        0.4318
     22 H2          3.7929    0.4642   -2.9070 H         1 HLU1        0.4868
     23 H3          3.4513    1.1722   -1.4567 H         1 HLU1        0.4198
@<TRIPOS>BOND
     1    3    2 1
     2    3    4 2
     3    3   10 2
     4    2    5 1
     5    2   11 1
     6    2    1 1
     7    5    6 1
     8    5   12 1
     9    5    9 1
    10    7    6 1
    11    7   14 1
    12    7   15 1
    13    7   16 1
    14    8    6 1
    15    8   17 1
    16    8   18 1
    17    8   19 1
    18    6   13 1
    19   21    1 1
    20   22    1 1
    21   23    1 1
    22   20    9 1
@<TRIPOS>SUBSTRUCTURE
     1 HLU1        2 RESIDUE           4 A     HLU     0 ROOT
