@<TRIPOS>MOLECULE
MEG.pdb
21 20 1 0 0
SMALL
AMBER ff99SB


@<TRIPOS>ATOM
      1 N           1.1261    1.9456   -0.5613 N.4       1 MEG1       -1.1326
      2 CA          1.1300    0.6979    0.2133 C.3       1 MEG1        0.0115
      3 CB         -0.1745   -0.0617   -0.0386 C.3       1 MEG1       -0.0397
      4 CG1        -1.3600    0.8030    0.3927 C.3       1 MEG1       -0.1694
      5 CD         -2.6468    0.1072    0.0338 C.2       1 MEG1        0.8896
      6 OE1        -2.6202   -0.9706   -0.5120 O.co2     1 MEG1       -0.5923
      7 OE2        -3.8242    0.6848    0.3197 O.co2     1 MEG1       -0.6383
      8 C           2.2977   -0.1543   -0.2130 C.2       1 MEG1        0.8946
      9 O           2.8288    0.0374   -1.2803 O.co2     1 MEG1       -0.8373
     10 CG2        -0.1707   -1.3607    0.7684 C.3       1 MEG1       -0.0871
     11 H3          1.0464    1.7580   -1.5499 H         1 MEG1        0.3648
     12 H2          0.3910    2.5626   -0.2510 H         1 MEG1        0.4798
     13 HA          1.2164    0.9288    1.2745 H         1 MEG1        0.0427
     14 HB         -0.2618   -0.2936   -1.0998 H         1 MEG1        0.0567
     15 HG11       -1.3207    0.9609    1.4710 H         1 MEG1        0.0627
     16 HG12       -1.3119    1.7664   -0.1159 H         1 MEG1        0.0647
     17 HG21       -1.1005   -1.9028    0.5889 H         1 MEG1        0.0047
     18 HG22        0.6736   -1.9780    0.4612 H         1 MEG1        0.0757
     19 HG23       -0.0833   -1.1298    1.8299 H         1 MEG1        0.0387
     20 OXT         2.7482   -1.1281    0.5954 O.co2     1 MEG1       -0.8243
     21 H1          2.0084    2.4105   -0.4036 H         1 MEG1        0.3348
@<TRIPOS>BOND
     1    8    2 1
     2    8    9 2
     3    8   20 1
     4    2    3 1
     5    2   13 1
     6    2    1 1
     7    3    4 1
     8    3   10 1
     9    3   14 1
    10    5    4 1
    11    5    6 2
    12    5    7 2
    13    4   15 1
    14    4   16 1
    15   10   17 1
    16   10   18 1
    17   10   19 1
    18   21    1 1
    19   12    1 1
    20   11    1 1
@<TRIPOS>SUBSTRUCTURE
     1 MEG1        2 RESIDUE           4 A     MEG     0 ROOT
