@<TRIPOS>MOLECULE

19 18 1
SMALL
USER_CHARGES
@<TRIPOS>ATOM
1	C1    -6.6085    -5.2338     0.0000	C.2	1	noname	0.1449
2	O1    -6.6085    -6.7738     0.0000	O.2	1	noname	-0.2488
3	O2    -7.9422    -4.4638     0.0000	O.3	1	noname	-0.2134
4	C2    -5.2748    -4.4638     0.0000	C.3	1	noname	0.1159
5	N1    -3.9411    -5.2338     0.0000	N.3	1	noname	-0.3175
6	C3    -5.2748    -2.9238     0.0000	C.3	1	noname	0.0872
7	O3    -3.9411    -2.1538     0.0000	O.3	1	noname	-0.1530
8	P1    -3.9411    -0.6138     0.0000	P	1	noname	0.0148
9	O4    -3.9411     0.9262     0.0000	O.3	1	noname	-0.1645
10	O5    -2.4011    -0.6138     0.0000	O.3	1	noname	-0.1645
11	O6    -5.4811    -0.6138     0.0000	O.2	1	noname	-0.1967
12	H1    -7.9422    -2.9238     0.0000	H	1	noname	0.2213
13	H2    -5.2748    -6.0038     0.0000	H	1	noname	0.0596
14	H3    -3.9411    -6.7738     0.0000	H	1	noname	0.1192
15	H4    -2.6075    -4.4638     0.0000	H	1	noname	0.1192
16	H5    -6.8139    -2.8700     0.0000	H	1	noname	0.0599
17	H6    -6.0909    -1.6178     0.0000	H	1	noname	0.0599
18	H7    -2.6075     1.6962     0.0000	H	1	noname	0.2283
19	H8    -1.6311    -1.9474     0.0000	H	1	noname	0.2283
@<TRIPOS>BOND
1	1	2	2
2	1	3	1
3	1	4	1
4	4	5	1
5	4	6	1
6	6	7	1
7	7	8	1
8	8	9	1
9	8	10	1
10	8	11	2
11	3	12	1
12	4	13	1
13	5	14	1
14	5	15	1
15	6	16	1
16	6	17	1
17	9	18	1
18	10	19	1
@<TRIPOS>SUBSTRUCTURE
1	noname	1
