@<TRIPOS>MOLECULE
HCS.pdb
17 16 1 0 0
SMALL
AMBER ff99SB


@<TRIPOS>ATOM
      1 N           2.2930    0.4150   -0.4520 N.4       1 HCS1       -0.8446
      2 CA          1.3360   -0.2500    0.4400 C.3       1 HCS1       -0.0795
      3 CB          0.0100   -0.4520   -0.2930 C.3       1 HCS1       -0.0864
      4 CG         -0.5500    0.9070   -0.7180 C.3       1 HCS1        0.0087
      5 SD         -2.1230    0.6690   -1.5890 S.3       1 HCS1       -0.4319
      6 C           1.8870   -1.5880    0.8590 C.2       1 HCS1        0.9376
      7 OXT         1.5610   -2.1040    2.0540 O.co2     1 HCS1       -0.7183
      8 O           2.6210   -2.1980    0.1190 O.co2     1 HCS1       -0.7983
      9 H3          2.4130   -0.1890   -1.2510 H         1 HCS1        0.4758
     10 H2          1.8440    1.2530   -0.7880 H         1 HCS1        0.4468
     11 HA          1.1720    0.3670    1.3230 H         1 HCS1        0.0857
     12 HB1         0.1740   -1.0690   -1.1760 H         1 HCS1        0.0767
     13 HB2        -0.7010   -0.9460    0.3680 H         1 HCS1        0.1237
     14 HG1        -0.7140    1.5250    0.1650 H         1 HCS1        0.0867
     15 HG2         0.1610    1.4010   -1.3810 H         1 HCS1        0.0657
     16 HD         -2.4330    1.9470   -1.8670 H         1 HCS1        0.2268
     17 H1          3.1690    0.6130    0.0100 H         1 HCS1        0.4238
@<TRIPOS>BOND
     1    6    2 1
     2    6    7 1
     3    6    8 2
     4    2    1 1
     5    2    3 1
     6    2   11 1
     7    3    4 1
     8    3   12 1
     9    3   13 1
    10    4    5 1
    11    4   14 1
    12    4   15 1
    13    9    1 1
    14   17    1 1
    15   10    1 1
    16   16    5 1
@<TRIPOS>SUBSTRUCTURE
     1 HCS1        2 RESIDUE           4 A     HCS     0 ROOT
