@<TRIPOS>MOLECULE
ONL.pdb
21 20 1 0 0
SMALL
AMBER ff99SB


@<TRIPOS>ATOM
      1 N           0.8650    2.1430   -0.1040 N.4       1 ONL1       -0.8256
      2 CA          0.9450    0.8890    0.6570 C.3       1 ONL1       -0.0745
      3 C           2.3390    0.3270    0.5560 C.2       1 ONL1        0.9366
      4 O           3.0670    0.6800   -0.3420 O.co2     1 ONL1       -0.7993
      5 OXT         2.7710   -0.5640    1.4600 O.co2     1 ONL1       -0.7203
      6 CB         -0.0550   -0.1180    0.0850 C.3       1 ONL1       -0.0844
      7 CG         -1.4790    0.3970    0.3020 C.3       1 ONL1       -0.2014
      8 CD         -2.4630   -0.5950   -0.2620 C.2       1 ONL1        0.5861
      9 OD         -2.0660   -1.6100   -0.7830 O.2       1 ONL1       -0.5991
     10 CE         -3.9430   -0.3210   -0.1750 C.3       1 ONL1       -0.2061
     11 HN1         1.4690    2.8470    0.2950 H         1 ONL1        0.4208
     12 HN2         1.0820    1.9910   -1.0770 H         1 ONL1        0.4808
     13 HA          0.7070    1.0830    1.7030 H         1 ONL1        0.0837
     14 HB1         0.1280   -0.2450   -0.9820 H         1 ONL1        0.0577
     15 HB2         0.0660   -1.0770    0.5910 H         1 ONL1        0.1247
     16 HG1        -1.6620    0.5230    1.3680 H         1 ONL1        0.0767
     17 HG2        -1.5990    1.3550   -0.2040 H         1 ONL1        0.0777
     18 HE1        -4.2630    0.2240   -1.0620 H         1 ONL1        0.0687
     19 HE2        -4.4840   -1.2660   -0.1140 H         1 ONL1        0.0737
     20 HE3        -4.1510    0.2740    0.7130 H         1 ONL1        0.0767
     21 HN3        -0.0850    2.4810   -0.0460 H         1 ONL1        0.4448
@<TRIPOS>BOND
     1    3    2 1
     2    3    4 2
     3    3    5 1
     4    2    1 1
     5    2    6 1
     6    2   13 1
     7    6    7 1
     8    6   14 1
     9    6   15 1
    10    8    7 1
    11    8   10 1
    12    8    9 2
    13   10   18 1
    14   10   19 1
    15   10   20 1
    16    7   16 1
    17    7   17 1
    18   21    1 1
    19   11    1 1
    20   12    1 1
@<TRIPOS>SUBSTRUCTURE
     1 ONL1        2 RESIDUE           4 A     ONL     0 ROOT
