@<TRIPOS>MOLECULE
DPP.pdb
16 15 1 0 0
SMALL
AMBER ff99SB


@<TRIPOS>ATOM
      1 N           2.0940    0.4600    1.3560 N.4       1 DPP1       -0.6786
      2 CA          0.6390    0.4970    1.3990 C.3       1 DPP1       -0.5725
      3 C           0.4090    1.8830    1.7090 C.2       1 DPP1        1.0286
      4 O           0.4340    2.2480    2.8700 O.co2     1 DPP1       -0.3963
      5 CB         -0.0290   -0.4390    2.4410 C.3       1 DPP1        0.2738
      6 NG          0.2540   -1.8460    2.1360 N.4       1 DPP1       -0.9036
      7 OXT         0.4160    2.7380    0.8390 O.co2     1 DPP1       -0.5813
      8 HA          0.2420    0.2770    0.4080 H         1 DPP1        0.1407
      9 HB1         0.3590   -0.2040    3.4330 H         1 DPP1        0.0617
     10 HB2        -1.1070   -0.2780    2.4280 H         1 DPP1        0.0947
     11 HG1        -0.1890   -2.4360    2.8250 H         1 DPP1        0.4208
     12 HG2         1.2530   -2.0000    2.1540 H         1 DPP1        0.4128
     13 HG3        -0.1050   -2.0730    1.2200 H         1 DPP1        0.4348
     14 H1          2.4010   -0.4790    1.1430 H         1 DPP1        0.4008
     15 H2          2.4640    0.7390    2.2530 H         1 DPP1        0.4228
     16 H3          2.4260    1.0930    0.6430 H         1 DPP1        0.4418
@<TRIPOS>BOND
     1    3    2 1
     2    3    4 2
     3    3    7 2
     4    2    5 1
     5    2    8 1
     6    2    1 1
     7    5    9 1
     8    5   10 1
     9    5    6 1
    10   14    1 1
    11   15    1 1
    12   16    1 1
    13   11    6 1
    14   12    6 1
    15   13    6 1
@<TRIPOS>SUBSTRUCTURE
     1 DPP1        2 RESIDUE           4 A     DPP     0 ROOT
