@<TRIPOS>MOLECULE
FUA2.mol2
20 20 1 0 0
SMALL
AMBER ff99SB


@<TRIPOS>ATOM
      1 N           2.5251   -2.9653    1.6943 N.4       1 FUA2   -0.8336
      2 CA          2.5253   -1.5265    1.4588 C.3       1 FUA2   -0.0715
      3 O           0.3141   -1.1739    2.0655 O.co2     1 FUA2   -0.7973
      4 CB          2.2853   -1.1826   -0.0381 C.3       1 FUA2   -0.1237
      5 C           1.4918   -1.1027    2.3664 C.2       1 FUA2    0.9376
      6 OXT         1.7724   -0.8878    3.5335 O.co2     1 FUA2   -0.7123
      7 CG          3.3775   -1.7000   -0.8845 C.ar      1 FUA2    0.2200
      8 CE1         4.5504   -3.0730   -2.1241 C.ar      1 FUA2    0.2406
      9 CE2         5.3137   -1.9234   -1.9741 C.ar      1 FUA2   -0.2513
     10 CD2         4.5719   -1.0532   -1.1923 C.ar      1 FUA2   -0.2303
     11 OD1         3.3796   -2.9276   -1.4615 O.2       1 FUA2   -0.4228
     12 HA          3.4801   -1.1081    1.7773 H         1 FUA2    0.0937
     13 HB1         1.3443   -1.6292   -0.3593 H         1 FUA2    0.0797
     14 HB2         2.2256   -0.1002   -0.1520 H         1 FUA2    0.1317
     15 HE1         4.8455   -3.9485   -2.6834 H         1 FUA2    0.0541
     16 HE2         6.2952   -1.7426   -2.3868 H         1 FUA2    0.1690
     17 HD2         4.8643   -0.0614   -0.8806 H         1 FUA2    0.1730
     18 H1          3.2212   -3.4030    1.1079 H         1 FUA2    0.4368
     19 H2          2.7396   -3.1475    2.6643 H         1 FUA2    0.4218
     20 H3          1.6143   -3.3423    1.4743 H         1 FUA2    0.4838
@<TRIPOS>BOND
     1    3    5 2
     2    5    2 1
     3    5    6 1
     4    2    1 1
     5    2    4 1
     6    4    7 1
     7   10    7 ar
     8    7   11 ar
     9    8    9 ar
    10    9   10 ar
    11    8   11 ar
    12   12    2 1
    13   13    4 1
    14   14    4 1
    15   15    8 1
    16   16    9 1
    17   17   10 1
    18   18    1 1
    19   19    1 1
    20   20    1 1
@<TRIPOS>SUBSTRUCTURE
     1 FUA2     2 RESIDUE           4 A     FUA2     0 ROOT
