@<TRIPOS>MOLECULE
MTR5.pdb
30 31 1 0 0
SMALL
AMBER ff99SB


@<TRIPOS>ATOM
      1 N           1.6300   -2.7080   -0.4000 N.4       1 MTR5   -0.8326
      2 CA          2.1920   -1.3610   -0.4290 C.3       1 MTR5   -0.0635
      3 C           3.7310   -1.4220   -0.4280 C.2       1 MTR5    0.9336
      4 O           4.3230   -2.4650   -0.4050 O.co2     1 MTR5   -0.8083
      5 CB          1.6880   -0.5730    0.8120 C.3       1 MTR5   -0.0182
      6 CG          0.1820   -0.2940    0.8260 C.ar      1 MTR5   -0.1932
      7 CD1        -0.7900   -1.0600    1.5020 C.ar      1 MTR5   -0.0850
      8 CD2        -0.5150    0.6720    0.1300 C.ar      1 MTR5   -0.0830
      9 CE2        -1.8950    0.4860    0.3930 C.ar      1 MTR5   -0.0353
     10 CE3        -0.0790    1.7000   -0.7450 C.ar      1 MTR5   -0.0910
     11 NE1        -2.0920   -0.5880    1.2480 N.ar      1 MTR5   -0.2364
     12 CZ2        -2.8490    1.3350   -0.2090 C.ar      1 MTR5   -0.1380
     13 CZ3        -1.0400    2.5300   -1.3220 C.ar      1 MTR5   -0.0953
     14 CH2        -2.4050    2.3530   -1.0570 C.ar      1 MTR5   -0.1090
     15 OXT         4.4750   -0.2010   -0.4540 O.co2     1 MTR5   -0.7133
     16 CJ3        -0.5900    3.6600   -2.2670 C.3       1 MTR5   -0.0528
     17 HA          1.8730   -0.8550   -1.3600 H         1 MTR5    0.0877
     18 HB1         2.2080    0.4010    0.8840 H         1 MTR5    0.1097
     19 HB2         1.9720   -1.1040    1.7420 H         1 MTR5    0.0667
     20 HD1        -0.5640   -1.9040    2.1360 H         1 MTR5    0.1710
     21 HE1        -2.9660   -0.9480    1.6050 H         1 MTR5    0.3007
     22 HE3         0.9710    1.8370   -0.9590 H         1 MTR5    0.1440
     23 HZ2        -3.9030    1.2000   -0.0170 H         1 MTR5    0.1360
     24 HH2        -3.1250    3.0140   -1.5160 H         1 MTR5    0.1350
     25 H1          1.0510   -2.7910   -1.2230 H         1 MTR5    0.4248
     26 H2          1.0180   -2.7590    0.4020 H         1 MTR5    0.4278
     27 H3          2.2090   -3.5230   -0.3820 H         1 MTR5    0.4798
     28 HJ31       -0.6000    4.6090   -1.7300 H         1 MTR5    0.0497
     29 HJ32       -1.2690    3.7160   -3.1170 H         1 MTR5    0.0427
     30 HJ33        0.4200    3.4550   -2.6220 H         1 MTR5    0.0457
@<TRIPOS>BOND
     1    3    2 1
     2    3    4 2
     3    3   15 1
     4    2    5 1
     5    2   17 1
     6    2    1 1
     7    5    6 1
     8    5   18 1
     9    5   19 1
    10    7    6 ar
    11    7   20 1
    12    7   11 ar
    13    8    9 ar
    14    8   10 ar
    15    8    6 ar
    16    9   12 ar
    17    9   11 ar
    18   10   13 ar
    19   10   22 1
    20   14   12 ar
    21   14   13 ar
    22   14   24 1
    23   16   13 1
    24   16   28 1
    25   16   29 1
    26   16   30 1
    27   12   23 1
    28   25    1 1
    29   26    1 1
    30   27    1 1
    31   21   11 1
@<TRIPOS>SUBSTRUCTURE
     1 MTR5     2 RESIDUE           4 A     MTR5     0 ROOT
