@<TRIPOS>MOLECULE
BIF.pdb
33 34 1 0 0
SMALL
AMBER ff99SB


@<TRIPOS>ATOM
      1 N          -2.6890   -6.2670   -1.8620 N.4       1 BIF   -0.8356
      2 CA         -3.4380   -5.0530   -1.5410 C.3       1 BIF   -0.0685
      3 C          -2.9480   -4.0960   -2.5150 C.2       1 BIF    0.9366
      4 O          -3.1780   -4.2490   -3.7060 O.co2     1 BIF   -0.8023
      5 CB         -3.2230   -4.6500   -0.0490 C.3       1 BIF   -0.0501
      6 CG         -3.7110   -5.6810    0.9120 C.ar      1 BIF   -0.1143
      7 CE1        -3.3160   -7.6720    2.2860 C.ar      1 BIF   -0.1170
      8 CD1        -2.8480   -6.6810    1.4020 C.ar      1 BIF   -0.1560
      9 CD2        -5.0470   -5.6920    1.3570 C.ar      1 BIF   -0.1220
     10 CE2        -5.5060   -6.6880    2.2410 C.ar      1 BIF   -0.1140
     11 CZ         -4.6690   -7.7340    2.7300 C.ar      1 BIF   -0.0290
     12 C12        -5.1590   -8.7900    3.6180 C.ar      1 BIF   -0.0480
     13 C10        -6.9280  -10.3940    4.3270 C.ar      1 BIF   -0.1290
     14 C11        -6.4480   -9.3860    3.4690 C.ar      1 BIF   -0.1180
     15 C13        -4.3820   -9.3120    4.6970 C.ar      1 BIF   -0.1150
     16 C8         -4.8540  -10.3160    5.5640 C.ar      1 BIF   -0.1290
     17 C9         -6.1330  -10.8570    5.3810 C.ar      1 BIF   -0.1220
     18 OXT        -2.2140   -3.1770   -2.2030 O.co2     1 BIF   -0.7103
     19 HA         -4.4993   -5.2301   -1.7151 H         1 BIF    0.0887
     20 HB1        -2.1569   -4.4968    0.1186 H         1 BIF    0.0707
     21 HB2        -3.7477   -3.7139    0.1421 H         1 BIF    0.1157
     22 HE1        -2.6201   -8.4169    2.6428 H         1 BIF    0.1400
     23 HD1        -1.8125   -6.6876    1.0951 H         1 BIF    0.1310
     24 HD2        -5.7286   -4.9268    1.0160 H         1 BIF    0.1450
     25 HE2        -6.5366   -6.6582    2.5624 H         1 BIF    0.1430
     26 H10        -7.9121  -10.8107    4.1711 H         1 BIF    0.1350
     27 H11        -7.0826   -9.0488    2.6628 H         1 BIF    0.1330
     28 H13        -3.3884   -8.9191    4.8548 H         1 BIF    0.1360
     29 H8         -4.2292  -10.6694    6.3710 H         1 BIF    0.1360
     30 H9         -6.5016  -11.6235    6.0466 H         1 BIF    0.1350
     31 H1         -2.9603   -7.0074   -1.2308 H         1 BIF    0.4248
     32 H2         -2.8894   -6.5446   -2.8122 H         1 BIF    0.4838
     33 H3         -1.6998   -6.0877   -1.7652 H         1 BIF    0.4268
@<TRIPOS>BOND
     1    3    2 1
     2    3    4 2
     3    3   18 1 
     4   13   14 ar
     5   13   17 ar
     6   14   12 ar
     7   12   15 ar
     8   12   11 1
     9   15   16 ar
    10   16   17 ar
    11    2    5 1
    12    2    1 1
    13    5    6 1
    14    8    7 ar
    15    8    6 ar
    16    9   10 ar
    17    9    6 ar
    18    7   11 ar
    19   10   11 ar
    20   19    2 1
    21   20    5 1
    22   21    5 1
    23   22    7 1
    24   23    8 1
    25   24    9 1
    26   25   10 1
    27   26   13 1
    28   27   14 1
    29   28   15 1
    30   29   16 1
    31   30   17 1
    32   31    1 1
    33   32    1 1
    34   33    1 1
@<TRIPOS>SUBSTRUCTURE
     1 BIF     2 RESIDUE           4 A     BIF     0 ROOT
