@<TRIPOS>MOLECULE
GDPR.pdb
21 20 1 0 0
SMALL
AMBER ff99SB


@<TRIPOS>ATOM
      1 N          30.3637   35.2042  -87.5969 N.4       1 GDPR1       -0.6816
      2 CA         31.7106   34.6441  -87.5429 C.3       1 GDPR1       -0.6065
      3 C          32.7532   35.7277  -87.6892 C.2       1 GDPR1        1.0346
      4 O          33.7914   35.6889  -86.9989 O.co2     1 GDPR1       -0.4743
      5 CB         31.9941   33.5150  -88.6521 C.3       1 GDPR1        0.1463
      6 NG         31.2421   32.2461  -88.7632 N.pl3     1 GDPR1       -0.4141
      7 CD         31.4802   31.3420  -89.7096 C.cat     1 GDPR1        0.5281
      8 NE1        32.4241   31.5208  -90.6316 N.pl3     1 GDPR1       -0.5271
      9 NE2        30.7446   30.2356  -89.7166 N.pl3     1 GDPR1       -0.5421
     10 OXT        32.5416   36.6272  -88.4546 O.co2     1 GDPR1       -0.5223
     11 HA         31.8411   34.1863  -86.5622 H         1 GDPR1        0.1317
     12 HB1        31.8744   34.0128  -89.6149 H         1 GDPR1        0.0367
     13 HB2        33.0477   33.2483  -88.5649 H         1 GDPR1        0.0747
     14 HG         30.5122   32.0573  -88.0905 H         1 GDPR1        0.2967
     15 HE11       32.9821   32.3630  -90.6259 H         1 GDPR1        0.3227
     16 HE12       32.5799   30.8147  -91.3379 H         1 GDPR1        0.3167
     17 HE21       30.0288   30.1007  -89.0170 H         1 GDPR1        0.3167
     18 HE22       30.9013   29.5298  -90.4233 H         1 GDPR1        0.3157
     19 H1         29.6855   34.4619  -87.4974 H         1 GDPR1        0.3828
     20 H2         30.2461   35.8701  -86.8464 H         1 GDPR1        0.4458
     21 H3         30.2273   35.6683  -88.4837 H         1 GDPR1        0.4168
@<TRIPOS>BOND
     1    1    2 1
     2    1   19 1
     3    1   20 1
     4    1   21 1
     5    2    3 1
     6    2    5 1
     7    2   11 1
     8    3    4 2
     9    3   10 2
    10    5    6 1
    11    5   12 1
    12    5   13 1
    13    6    7 2
    14    6   14 1
    15    7    8 2
    16    7    9 2
    17    8   15 1
    18    8   16 1
    19    9   17 1
    20    9   18 1
@<TRIPOS>SUBSTRUCTURE
     1 GDPR1        2 RESIDUE           4 B     GDPR     0 ROOT
