@<TRIPOS>MOLECULE
mTYR_ox.pdb
24 24 1 0 0
SMALL
AMBER ff99SB


@<TRIPOS>ATOM
      1 N          22.1880  -19.5900   47.7520 N.4       1 MTY1       -0.8343
      2 CA         21.5330  -19.2300   49.0070 C.3       1 MTY1       -0.0204
      3 C          20.1970  -19.9190   49.1360 C.2       1 MTY1        0.3564
      4 O          19.7650  -20.6780   48.2650 O.co2     1 MTY1       -0.5363
      5 CB         21.2900  -17.6940   49.0850 C.3       1 MTY1       -0.0525
      6 CG         22.5350  -16.7980   49.0580 C.ar      1 MTY1       -0.0685
      7 CD1        23.3190  -16.6330   50.2040 C.ar      1 MTY1       -0.2078
      8 CD2        22.8960  -16.1470   47.8750 C.ar      1 MTY1       -0.2006
      9 CE1        24.4540  -15.8290   50.1630 C.ar      1 MTY1        0.1359
     10 CE2        24.0310  -15.3440   47.8360 C.ar      1 MTY1       -0.0906
     11 CZ         24.8100  -15.1850   48.9810 C.ar      1 MTY1       -0.1556
     12 OE1        25.2630  -15.6650   51.3320 O.3       1 MTY1       -0.4923
     13 OXT        19.5570  -19.7380   50.1450 O.co2     1 MTY1       -0.4460
     14 HN1        23.0780  -19.1170   47.6880 H         1 MTY1        0.4270
     15 HN2        22.3350  -20.5890   47.7240 H         1 MTY1        0.4280
     16 HN3        21.6040  -19.3140   46.9760 H         1 MTY1        0.4821
     17 HA         22.1680  -19.5580   49.8510 H         1 MTY1        0.0897
     18 HB1        20.7270  -17.4530   50.0080 H         1 MTY1        0.1153
     19 HB2        20.5970  -17.3900   48.2730 H         1 MTY1        0.0725
     20 HD1        23.0540  -17.1340   51.1250 H         1 MTY1        0.1475
     21 HD2        22.3020  -16.2750   46.9800 H         1 MTY1        0.1290
     22 HE2        24.3030  -14.8510   46.9150 H         1 MTY1        0.1391
     23 HZ         25.6990  -14.5560   48.9500 H         1 MTY1        0.1568
     24 HE1        24.8800  -16.1670   52.0560 H         1 MTY1        0.4257
@<TRIPOS>BOND
     1   16    1 1
     2   15    1 1
     3   14    1 1
     4    2    1 1
     5    2   17 1
     6    2    5 1
     7    5   19 1
     8    5   18 1
     9    5    6 1
    10    8    6 ar
    11    8   21 1
    12    8   10 ar
    13   10   22 1
    14   10   11 ar
    15   11   23 1
    16    9   11 ar
    17    9   12 1
    18   24   12 1
    19    7    9 ar
    20    7   20 1
    21    7    6 ar
    22    3    2 1
    23    3   13 1
    24    3    4 2
@<TRIPOS>SUBSTRUCTURE
     1 MTY1        2 RESIDUE           4 A     MTY     0 ROOT
