@<TRIPOS>MOLECULE
CAN.pdb
19 18 1 0 0
SMALL
AMBER ff99SB


@<TRIPOS>ATOM
      1 N           2.2800   -0.3680    1.3290 N.4       1 CAN1       -0.8356
      2 CA          1.7180   -0.2390   -0.0210 C.3       1 CAN1       -0.0695
      3 CB          0.3610    0.4600    0.0560 C.3       1 CAN1       -0.1004
      4 CG         -0.5890   -0.3640    0.9260 C.3       1 CAN1        0.1234
      5 OD         -1.8580    0.2880    0.9990 O.3       1 CAN1       -0.3131
      6 NE         -2.7160   -0.5450    1.8400 N.3       1 CAN1       -0.6483
      7 C           2.6550    0.5730   -0.8780 C.2       1 CAN1        0.9366
      8 O           3.3480    1.4250   -0.3760 O.co2     1 CAN1       -0.8003
      9 OXT         2.7160    0.3520   -2.2000 O.co2     1 CAN1       -0.7153
     10 HN1         1.5790   -0.8260    1.8920 H         1 CAN1        0.4398
     11 HN2         2.3790    0.5670    1.6940 H         1 CAN1        0.4818
     12 HA          1.5930   -1.2290   -0.4590 H         1 CAN1        0.0877
     13 HB1        -0.0560    0.5560   -0.9470 H         1 CAN1        0.1237
     14 HB2         0.4870    1.4500    0.4940 H         1 CAN1        0.0747
     15 HG1        -0.1730   -0.4600    1.9280 H         1 CAN1        0.0547
     16 HG2        -0.7140   -1.3550    0.4890 H         1 CAN1        0.0537
     17 HE1        -3.6110   -0.0840    1.8890 H         1 CAN1        0.3488
     18 HE2        -2.8620   -1.4090    1.3380 H         1 CAN1        0.3398
     19 HN3         3.1560   -0.8710    1.3300 H         1 CAN1        0.4198
@<TRIPOS>BOND
     1    7    2 1
     2    7    8 2
     3    7    9 1
     4    2    1 1
     5    2    3 1
     6    2   12 1
     7    3    4 1
     8    3   13 1
     9    3   14 1
    10    4    5 1
    11    4   15 1
    12    4   16 1
    13   19    1 1
    14   10    1 1
    15   11    1 1
    16   17    6 1
    17   18    6 1
    18    6    5 1
@<TRIPOS>SUBSTRUCTURE
     1 CAN1        2 RESIDUE           4 A     CAN     0 ROOT
