@<TRIPOS>MOLECULE
AA4.pdb
20 19 1 0 0
SMALL
AMBER ff99SB


@<TRIPOS>ATOM
      1 N          -1.3580   -0.5570    0.3690 N.4       1 AA41       -0.8376
      2 CA         -1.3340    0.3150   -0.8140 C.3       1 AA41       -0.0715
      3 C          -2.4960   -0.0230   -1.7100 C.2       1 AA41        0.9366
      4 O          -2.9300   -1.1500   -1.7390 O.co2     1 AA41       -0.8013
      5 CB         -0.0240    0.1040   -1.5740 C.3       1 AA41       -0.0964
      6 CG          1.1560    0.4470   -0.6650 C.3       1 AA41       -0.0964
      7 CD          2.4660    0.2370   -1.4260 C.3       1 AA41        0.1334
      8 OE          3.5680    0.5560   -0.5760 O.3       1 AA41       -0.6068
      9 OXT        -3.0510    0.9280   -2.4770 O.co2     1 AA41       -0.7093
     10 H3         -0.5120   -0.3680    0.8850 H         1 AA41        0.4248
     11 H2         -1.2870   -1.5040    0.0320 H         1 AA41        0.4878
     12 HA         -1.4070    1.3560   -0.4990 H         1 AA41        0.0907
     13 HB1         0.0500   -0.9370   -1.8890 H         1 AA41        0.0567
     14 HB2        -0.0070    0.7510   -2.4520 H         1 AA41        0.1157
     15 HG1         1.0820    1.4880   -0.3500 H         1 AA41        0.0577
     16 HG2         1.1380   -0.2000    0.2120 H         1 AA41        0.0297
     17 HD1         2.5390   -0.8050   -1.7400 H         1 AA41        0.0257
     18 HD2         2.4840    0.8840   -2.3030 H         1 AA41        0.0357
     19 HE          4.3720    0.4110   -1.0920 H         1 AA41        0.4060
     20 H1         -2.1860   -0.4130    0.9290 H         1 AA41        0.4198
@<TRIPOS>BOND
     1    3    2 1
     2    3    4 2
     3    3    9 1
     4    2    1 1
     5    2    5 1
     6    2   12 1
     7    5    6 1
     8    5   13 1
     9    5   14 1
    10    7    6 1
    11    7    8 1
    12    7   18 1
    13    7   17 1
    14    6   15 1
    15    6   16 1
    16   10    1 1
    17   20    1 1
    18   11    1 1
    19   19    8 1
@<TRIPOS>SUBSTRUCTURE
     1 AA41        2 RESIDUE           4 A     AA4     0 ROOT
