@<TRIPOS>MOLECULE
LVN.pdb
18 17 1 0 0
SMALL
AMBER ff99SB


@<TRIPOS>ATOM
      1 N          -1.6141    0.3670    0.8202 N.4       1 LVN1       -0.8306
      2 CA         -0.2638   -0.0083    0.3803 C.3       1 LVN1       -0.0705
      3 C           0.6087    1.2188    0.3334 C.2       1 LVN1        0.9336
      4 O           0.1047    2.3161    0.2756 O.co2     1 LVN1       -0.7913
      5 CB         -0.3379   -0.6342   -1.0131 C.3       1 LVN1       -0.1997
      6 CG1         1.0503   -0.9954   -1.4774 C.2       1 LVN1        0.5679
      7 CG2        -1.2028   -1.8950   -0.9610 C.3       1 LVN1       -0.1161
      8 OG1         1.4985   -0.5025   -2.4830 O.2       1 LVN1       -0.5281
      9 OXT         1.9438    1.0959    0.3502 O.co2     1 LVN1       -0.7153
     10 HA          0.1595   -0.7282    1.0810 H         1 LVN1        0.0917
     11 HB         -0.7789    0.0792   -1.7091 H         1 LVN1        0.0977
     12 HG11        1.6437   -1.6956   -0.9077 H         1 LVN1        0.0762
     13 HG21       -1.2551   -2.3416   -1.9551 H         1 LVN1        0.0887
     14 HG22       -0.7622   -2.6086   -0.2660 H         1 LVN1        0.0337
     15 HG23       -2.2058   -1.6340   -0.6276 H         1 LVN1        0.0207
     16 H1         -2.1859   -0.4659    0.8112 H         1 LVN1        0.4238
     17 H2         -2.0285    1.0330    0.1882 H         1 LVN1        0.4838
     18 H3         -1.6006    0.7232    1.7645 H         1 LVN1        0.4338
@<TRIPOS>BOND
     1    3    2 1
     2    3    4 2
     3    3    9 2
     4    2    5 1
     5    2   10 1
     6    2    1 1
     7    5    6 1
     8    5    7 1
     9    5   11 1
    10    6   12 1
    11    6    8 2
    12    7   13 1
    13    7   14 1
    14    7   15 1
    15   16    1 1
    16   17    1 1
    17   18    1 1
@<TRIPOS>SUBSTRUCTURE
     1 LVN1        2 RESIDUE           4 A     LVN     0 ROOT
