@<TRIPOS>MOLECULE
OCY.pdb
21 20 1 0 0
SMALL
AMBER ff99SB


@<TRIPOS>ATOM
      1 N          -0.4462    0.8081    1.5589 N.4       1 OCY1       -0.8366
      2 CA          0.5109    1.6164    0.7906 C.3       1 OCY1       -0.0765
      3 CB          0.5280    1.1429   -0.6633 C.3       1 OCY1       -0.0013
      4 SG          1.0207   -0.6002   -0.7267 S.3       1 OCY1       -0.3822
      5 CD          0.9547   -0.8826   -2.5172 C.3       1 OCY1       -0.0003
      6 CE          1.3446   -2.3295   -2.8209 C.3       1 OCY1        0.1434
      7 OZ          1.2916   -2.5525   -4.2315 O.3       1 OCY1       -0.6008
      8 C           0.1020    3.0638    0.8445 C.2       1 OCY1        0.9416
      9 O          -1.0661    3.3587    0.9481 O.co2     1 OCY1       -0.7943
     10 OXT         1.0320    4.0290    0.7761 O.co2     1 OCY1       -0.7033
     11 H3         -0.1948   -0.1577    1.4101 H         1 OCY1        0.4408
     12 H2         -1.3480    0.9418    1.1280 H         1 OCY1        0.4788
     13 HA          1.5072    1.5044    1.2209 H         1 OCY1        0.1007
     14 HB1        -0.4674    1.2547   -1.0925 H         1 OCY1        0.0867
     15 HB2         1.2366    1.7432   -1.2325 H         1 OCY1        0.1237
     16 HD1        -0.0559   -0.6945   -2.8773 H         1 OCY1        0.0797
     17 HD2         1.6489   -0.2067   -3.0171 H         1 OCY1        0.0837
     18 HE1         2.3559   -2.5170   -2.4612 H         1 OCY1        0.0417
     19 HE2         0.6498   -3.0047   -2.3212 H         1 OCY1        0.0357
     20 HZ          1.5436   -3.4739   -4.3791 H         1 OCY1        0.4080
     21 H1         -0.4513    1.0535    2.5377 H         1 OCY1        0.4298
@<TRIPOS>BOND
     1    8    9 2
     2    8    2 1
     3    8   10 2
     4    2    3 1
     5    2    1 1
     6    2   13 1
     7    3    4 1
     8    3   14 1
     9    3   15 1
    10    5    4 1
    11    5   16 1
    12    5   17 1
    13    5    6 1
    14    6   19 1
    15    6   18 1
    16    6    7 1
    17   11    1 1
    18   21    1 1
    19   12    1 1
    20   20    7 1
@<TRIPOS>SUBSTRUCTURE
     1 OCY1        2 RESIDUE           4 A     OCY     0 ROOT
