@<TRIPOS>MOLECULE
CYS.pdb
 14 13 0 0 0
SMALL
GASTEIGER

@<TRIPOS>ATOM
      1  N         -0.6640   -1.5780   -0.6330 N.4     1  CYS1        0.3876
      2  CA        -0.1050   -0.2290   -0.6330 C.3     1  CYS1        0.0294
      3  O          2.0340   -1.3370   -0.6330 O.co2   1  CYS1       -0.2482
      4  CB        -0.6740    0.5370    0.5770 C.3     1  CYS1       -0.0122
      5  SG        -0.1630    2.2700    0.5350 S.3     1  CYS1       -0.1794
      6  C          1.4350   -0.2950   -0.6330 C.2     1  CYS1        0.3428
      7  OXT        2.1780    0.9270   -0.6330 O.co2   1  CYS1       -0.2482
      8  H3        -0.0360   -2.4570   -0.6330 H       1  CYS1       -0.0888
      9  HA        -0.4200    0.2770   -1.5640 H       1  CYS1        0.0206
     10  HB1       -0.3490    0.0820    1.5350 H       1  CYS1        0.0363
     11  HB2       -1.7780    0.5090    0.5850 H       1  CYS1        0.0363
     12  HG         0.7490    2.1910    1.5010 H       1  CYS1        0.1016
     13  H1        -1.2430   -1.6440    0.1920 H       1  CYS1       -0.0888
     14  H2        -1.2760   -1.6480   -1.4340 H       1  CYS1       -0.0888
@<TRIPOS>BOND
     1     6     7    1
     2     2     4    1
     3     2     6    1
     4     2     9    1
     5     4     5    1
     6     4    10    1
     7     4    11    1
     8     1     2    1
     9     1     8    1
    10     1    13    1
    11     1    14    1
    12     3     6    2
    13     5    12    1
