@<TRIPOS>MOLECULE
HIS.pdb
 20 20 0 0 0
SMALL
GASTEIGER

@<TRIPOS>ATOM
      1  N          0.4980   -2.3720   -1.1270 N.4     1  HIS1        0.3873
      2  CA         1.0520   -1.0530   -0.8340 C.3     1  HIS1        0.0260
      3  O          3.1950   -2.1170   -1.1120 O.co2   1  HIS1       -0.2482
      4  CB         0.5510   -0.6760    0.5700 C.3     1  HIS1       -0.0118
      5  CG        -0.2810    0.5730    0.5620 C.ar    1  HIS1        0.0578
      6  CD2       -1.6600    0.5550    0.4000 C.ar    1  HIS1        0.0242
      7  ND1        0.1970    1.8730    0.7110 N.ar    1  HIS1       -0.2409
      8  CE1       -0.9590    2.5560    0.6200 C.ar    1  HIS1        0.0936
      9  NE2       -2.1080    1.8500    0.4380 N.ar    1  HIS1       -0.3506
     10  C          2.5920   -1.1060   -0.8720 C.2     1  HIS1        0.3424
     11  OXT        3.3290    0.0910   -0.6110 O.co2   1  HIS1       -0.2482
     12  H3         1.1290   -3.2240   -1.3320 H       1  HIS1       -0.0889
     13  HA         0.7320   -0.3700   -1.6390 H       1  HIS1        0.0202
     14  HB1        1.3970   -0.5170    1.2680 H       1  HIS1        0.0318
     15  HB2       -0.0590   -1.4830    1.0270 H       1  HIS1        0.0318
     16  HD2       -2.2520   -0.3460    0.2680 H       1  HIS1        0.0825
     17  HE1       -0.9120    3.6340    0.7000 H       1  HIS1        0.1027
     18  HE2       -3.0750    2.1940    0.3480 H       1  HIS1        0.1662
     19  H1        -0.0680   -2.6250   -0.3300 H       1  HIS1       -0.0889
     20  H2        -0.1260   -2.2660   -1.9140 H       1  HIS1       -0.0889
@<TRIPOS>BOND
     1    20     1    1
     2    13     2    1
     3    12     1    1
     4     1     2    1
     5     1    19    1
     6     3    10    2
     7    10     2    1
     8    10    11    1
     9     2     4    1
    10    16     6    1
    11    18     9    1
    12     6     9   ar
    13     6     5   ar
    14     9     8   ar
    15     5     4    1
    16     5     7   ar
    17     4    15    1
    18     4    14    1
    19     8    17    1
    20     8     7   ar
