@<TRIPOS>MOLECULE
PYR2.pdb
22 22 1 0 0
SMALL
AMBER ff99SB


@<TRIPOS>ATOM
      1 N          14.0250   32.0590  -72.0160 N.4       1 PYR2   -0.8196
      2 CA         13.6090   33.1970  -71.1870 C.3       1 PYR2   -0.0615
      3 C          12.5980   34.0800  -71.9210 C.2       1 PYR2    0.9346
      4 O          11.3950   34.0340  -71.6430 O.co2     1 PYR2   -0.7203
      5 CB         14.8270   34.0310  -70.7630 C.3       1 PYR2   -0.1447
      6 CG         15.9210   33.2270  -70.1020 C.ar      1 PYR2    0.3976
      7 ND1        15.8750   32.9570  -68.7340 N.ar      1 PYR2   -0.7360
      8 CD2        16.9970   32.7410  -70.8480 C.ar      1 PYR2   -0.2293
      9 CE1        16.8800   32.2150  -68.1210 C.ar      1 PYR2    0.4062
     10 CE2        18.0080   31.9960  -70.2460 C.ar      1 PYR2   -0.0810
     11 CZ         17.9500   31.7330  -68.8810 C.ar      1 PYR2   -0.2433
     12 OXT        12.9880   34.8460  -72.8000 O.co2     1 PYR2   -0.8013
     13 H1         14.3140   32.2340  -72.9680 H         1 PYR2    0.4788
     14 HA         13.1320   32.8080  -70.2870 H         1 PYR2    0.0917
     15 HB2        14.4920   34.7950  -70.0620 H         1 PYR2    0.1247
     16 HB3        15.2380   34.5220  -71.6450 H         1 PYR2    0.0717
     17 HD2        17.0460   32.9460  -71.9070 H         1 PYR2    0.1570
     18 HE1        16.8340   32.0120  -67.0610 H         1 PYR2    0.0201
     19 HE2        18.8330   31.6240  -70.8360 H         1 PYR2    0.1460
     20 HZ         18.7320   31.1570  -68.4080 H         1 PYR2    0.1490
     21 H2         14.8017   31.6166  -71.5458 H         1 PYR2    0.4328
     22 H3         13.2613   31.3985  -72.0408 H         1 PYR2    0.4288
@<TRIPOS>BOND
     1    3    2 1
     2    3    4 2
     3    3   12 2
     4    2    5 1
     5    2   14 1
     6    2    1 1
     7    5    6 1
     8    5   15 1
     9    5   16 1
    10    8   10 ar
    11    8    6 ar
    12    8   17 1
    13    9   11 ar
    14    9   18 1
    15    9    7 ar
    16   10   11 ar
    17   10   19 1
    18    6    7 ar
    19   11   20 1
    20   13    1 1
    21   21    1 1
    22   22    1 1
@<TRIPOS>SUBSTRUCTURE
     1 PYR2     2 RESIDUE           4 B     PYR2     0 ROOT
