@<TRIPOS>MOLECULE
ADM.pdb
37 39 1 0 0
SMALL
AMBER ff99SB


@<TRIPOS>ATOM
      1 N           1.2690   -0.2810    1.1640 N.4       1 ADAM       -0.8386
      2 CA          0.3770    0.0900    0.0680 C.3       1 ADAM       -0.0685
      3 C           1.3040    0.5170   -0.9510 C.2       1 ADAM        0.9346
      4 O           2.4310    0.8980   -0.6710 O.co2     1 ADAM       -0.8033
      5 CB         -0.6910    1.1450    0.5070 C.3       1 ADAM       -0.0884
      6 CG         -1.7140    0.7650    1.6480 C.3       1 ADAM       -0.0600
      7 CD1        -2.7470   -0.3300    1.1850 C.3       1 ADAM       -0.0644
      8 CD2        -2.5360    2.0540    2.0410 C.3       1 ADAM       -0.0654
      9 CD3        -0.9970    0.2430    2.9500 C.3       1 ADAM       -0.0664
     10 CE1        -3.7850   -0.6400    2.3100 C.3       1 ADAM       -0.0637
     11 CE2        -3.5770    1.7450    3.1640 C.3       1 ADAM       -0.0627
     12 CE3        -2.0370   -0.0650    4.0750 C.3       1 ADAM       -0.0597
     13 CZ1        -4.5770    0.6580    2.6610 C.3       1 ADAM       -0.0704
     14 CZ2        -2.8290    1.2290    4.4340 C.3       1 ADAM       -0.0694
     15 CZ3        -3.0340   -1.1600    3.5770 C.3       1 ADAM       -0.0704
     16 OXT         1.0090    0.4030   -2.1250 O.co2     1 ADAM       -0.7113
     17 HN1         1.7280    0.5480    1.5510 H         1 ADAM        0.4228
     18 HN2         0.7800   -0.7490    1.9300 H         1 ADAM        0.4188
     19 HN3         1.9850   -0.9250    0.8170 H         1 ADAM        0.4858
     20 HA         -0.1380   -0.8050   -0.2810 H         1 ADAM        0.0927
     21 HB1        -0.1360    2.0300    0.8330 H         1 ADAM        0.0457
     22 HB2        -1.2560    1.4550   -0.3780 H         1 ADAM        0.1177
     23 HD11       -3.2770    0.0320    0.3030 H         1 ADAM        0.0617
     24 HD12       -2.2110   -1.2440    0.9310 H         1 ADAM        0.0377
     25 HD21       -1.8470    2.8190    2.3980 H         1 ADAM        0.0377
     26 HD22       -3.0590    2.4260    1.1610 H         1 ADAM        0.0537
     27 HD31       -0.3020    1.0040    3.3050 H         1 ADAM        0.0257
     28 HD32       -0.4430   -0.6660    2.7140 H         1 ADAM        0.0117
     29 HE1        -4.4790   -1.4050    1.9620 H         1 ADAM        0.0557
     30 HE2        -4.1250    2.6540    3.4110 H         1 ADAM        0.0537
     31 HE3        -1.5150   -0.4270    4.9600 H         1 ADAM        0.0467
     32 HZ11       -5.3050    0.4410    3.4430 H         1 ADAM        0.0427
     33 HZ12       -5.0940    1.0210    1.7730 H         1 ADAM        0.0477
     34 HZ21       -2.1360    1.9940    4.7840 H         1 ADAM        0.0397
     35 HZ22       -3.5530    1.0060    5.2180 H         1 ADAM        0.0467
     36 HZ31       -3.7570   -1.3780    4.3640 H         1 ADAM        0.0467
     37 HZ32       -2.4840   -2.0660    3.3270 H         1 ADAM        0.0377
@<TRIPOS>BOND
     1    3    2 1
     2    3    4 2
     3    3   16 2
     4    2    5 1
     5    2   20 1
     6    2    1 1
     7    5    6 1
     8    5   21 1
     9    5   22 1
    10    7   10 1
    11    7    6 1
    12    7   23 1
    13    7   24 1
    14    8   11 1
    15    8    6 1
    16    8   25 1
    17    8   26 1
    18    9   12 1
    19    9    6 1
    20    9   27 1
    21    9   28 1
    22   10   13 1
    23   10   15 1
    24   10   29 1
    25   11   13 1
    26   11   14 1
    27   11   30 1
    28   12   14 1
    29   12   15 1
    30   12   31 1
    31   13   32 1
    32   13   33 1
    33   14   34 1
    34   14   35 1
    35   15   36 1
    36   15   37 1
    37   17    1 1
    38   18    1 1
    39   19    1 1
@<TRIPOS>SUBSTRUCTURE
     1 ADAM        2 RESIDUE           4 A     ADM     0 ROOT
