@<TRIPOS>MOLECULE
HRG.pdb
30 29 1 0 0
SMALL
AMBER ff99SB


@<TRIPOS>ATOM
      1 N           3.1373    0.8079    0.2066 N.4       1 HRG1       -0.8316
      2 CA          2.6525   -0.3043    1.0367 C.3       1 HRG1       -0.0235
      3 CB          1.3696   -0.8719    0.4268 C.3       1 HRG1       -0.0834
      4 CD         -1.0176   -0.3840   -0.1253 C.3       1 HRG1       -0.1174
      5 CG          0.2664    0.1856    0.4839 C.3       1 HRG1       -0.0724
      6 CE         -2.1207    0.6745   -0.0691 C.3       1 HRG1        0.0013
      7 NZ         -3.3501    0.1299   -0.6512 N.pl3     1 HRG1       -0.3881
      8 CH         -4.4846    0.9042   -0.7115 C.cat     1 HRG1        0.5291
      9 NJ1        -5.5775    0.4203   -1.2308 N.pl3     1 HRG1       -0.5361
     10 NJ2        -4.4658    2.1895   -0.2238 N.pl3     1 HRG1       -0.4731
     11 C           3.7035   -1.3827    1.0925 C.2       1 HRG1        0.9076
     12 O           4.5678   -1.4298    0.2504 O.co2     1 HRG1       -0.8183
     13 OXT         3.6773   -2.2923    2.0788 O.co2     1 HRG1       -0.7693
     14 HN1         4.0324    1.0817    0.5843 H         1 HRG1        0.4508
     15 HN2         3.3123    0.4290   -0.7122 H         1 HRG1        0.4808
     16 HA          2.4478    0.0573    2.0437 H         1 HRG1        0.1137
     17 HB1         1.5530   -1.1524   -0.6105 H         1 HRG1        0.0547
     18 HB2         1.0583   -1.7526    0.9902 H         1 HRG1        0.0597
     19 HD1        -0.8341   -0.6625   -1.1634 H         1 HRG1        0.0527
     20 HD2        -1.3279   -1.2627    0.4384 H         1 HRG1        0.0677
     21 HG1         0.0830    0.4651    1.5211 H         1 HRG1        0.0837
     22 HG2         0.5767    1.0653   -0.0797 H         1 HRG1        0.0627
     23 HE1        -2.3042    0.9539    0.9691 H         1 HRG1        0.1187
     24 HE2        -1.8104    1.5542   -0.6327 H         1 HRG1        0.0837
     25 HZ         -3.3623   -0.7765   -0.9962 H         1 HRG1        0.2987
     26 HJ12       -6.3781    0.9662   -1.2714 H         1 HRG1        0.3137
     27 HJ21       -5.2663    2.7355   -0.2653 H         1 HRG1        0.3147
     28 HJ22       -3.6520    2.5500    0.1618 H         1 HRG1        0.3737
     29 HN3         2.4835    1.5769    0.1827 H         1 HRG1        0.4368
     30 HJ11       -5.5913   -0.5240   -1.5899 H         1 HRG1        0.3097
@<TRIPOS>BOND
     1   11    2 1
     2   11   12 2
     3   11   13 1
     4    2    1 1
     5    2    3 1
     6    2   16 1
     7    3    5 1
     8    3   18 1
     9    3   17 1
    10    6    4 1
    11    6    7 1
    12    6   23 1
    13    6   24 1
    14    4    5 1
    15    4   19 1
    16    4   20 1
    17    5   21 1
    18    5   22 1
    19    8   10 2
    20    8    7 2
    21    8    9 2
    22   29    1 1
    23   30    9 1
    24   26    9 1
    25   14    1 1
    26   15    1 1
    27   27   10 1
    28   28   10 1
    29   25    7 1
@<TRIPOS>SUBSTRUCTURE
     1 HRG1        2 RESIDUE           4 A     HRG     0 ROOT
