@<TRIPOS>MOLECULE
32T.pdb
24 25 1 0 0
SMALL
AMBER ff99SB


@<TRIPOS>ATOM
      1 N           8.2090    2.5450   -3.9090 N.4       1 32T1       -0.8316
      2 CA          6.9940    2.6650   -3.1420 C.3       1 32T1       -0.0645
      3 C           6.9510    1.6420   -2.0170 C.2       1 32T1        0.9346
      4 O           7.4270    0.5160   -2.1200 O.co2     1 32T1       -0.8083
      5 CB          5.7530    2.5440   -4.0670 C.3       1 32T1       -0.0171
      6 CG          5.7300    3.4990   -5.1790 C.ar      1 32T1       -0.1463
      7 CD1         6.2510    3.4020   -6.4510 C.ar      1 32T1       -0.1313
      8 CD2         5.1150    4.7830   -5.1180 C.ar      1 32T1       -0.1451
      9 CE2         5.2870    5.3970   -6.3240 C.ar      1 32T1       -0.0873
     10 NE1         5.9840    4.5490   -7.1490 N.ar      1 32T1       -0.1631
     11 CZ2         4.7150    6.6940   -6.3960 C.ar      1 32T1       -0.1390
     12 CZ3         4.1190    7.0080   -5.1940 C.ar      1 32T1       -0.1401
     13 OXT         6.3520    2.0710   -0.8800 O.co2     1 32T1       -0.7123
     14 SUL         4.2390    5.7740   -3.9980 S.2       1 32T1        0.0392
     15 HA          6.9790    3.6580   -2.6920 H         1 32T1        0.0877
     16 HB1         4.8600    2.7040   -3.4620 H         1 32T1        0.1107
     17 HB2         5.7210    1.5350   -4.4760 H         1 32T1        0.0697
     18 HD1         6.7890    2.5490   -6.8380 H         1 32T1        0.1730
     19 HE1         6.2560    4.7390   -8.1030 H         1 32T1        0.3057
     20 HZ2         4.7450    7.3380   -7.2610 H         1 32T1        0.1590
     21 HZ3         3.6170    7.9480   -5.0150 H         1 32T1        0.1740
     22 H1          8.2110    3.2340   -4.6470 H         1 32T1        0.4288
     23 H2          9.0040    2.6960   -3.3050 H         1 32T1        0.4248
     24 H3          8.2630    1.6200   -4.3110 H         1 32T1        0.4798
@<TRIPOS>BOND
     1    3    2 1
     2    3    4 2
     3    3   13 2
     4    2    5 1
     5    2   15 1
     6    2    1 1
     7    5    6 1
     8    5   16 1
     9    5   17 1
    10    7    6 ar
    11    7   18 1
    12    7   10 ar
    13    8    9 ar
    14    8    6 ar
    15    8   14 ar
    16    9   11 ar
    17    9   10 ar
    18   11   12 ar
    19   11   20 1
    20   12   21 1
    21   12   14 ar
    22   22    1 1
    23   23    1 1
    24   24    1 1
    25   19   10 1
@<TRIPOS>SUBSTRUCTURE
     1 32T1        2 RESIDUE           4 A     32T     0 ROOT
