@<TRIPOS>MOLECULE
GLY.pdb
 8 7 0 0 0
SMALL
GASTEIGER

@<TRIPOS>ATOM
      1  N         -1.1950    0.2010   -0.2060 N.3    22  GLY        -0.2453
      2  CA         0.2300    0.3180   -0.5020 C.3    22  GLY         0.1121
      3  O          0.5450   -0.9750    1.4990 O.co2  22  GLY        -0.2449
      4  C          1.0600   -0.4100    0.5730 C.2    22  GLY         0.3709
      5  OXT        2.4850   -0.4120    0.4650 O.co2  22  GLY        -0.2449
      6  H         -1.5580   -0.3330    0.6600 H      22  GLY         0.1412
      7 3HA         0.4820    1.3370   -0.5140 H      22  GLY         0.0554
      8  HA         0.4340   -0.1590   -1.4790 H      22  GLY         0.0554
@<TRIPOS>BOND
     1     8     2    1
     2     7     2    1
     3     2     1    1
     4     2     4    1
     5     1     6    1
     6     5     4    1
     7     4     3    2
