@<TRIPOS>MOLECULE
OAS.pdb
19 18 1 0 0
SMALL
NO_CHARGES


@<TRIPOS>ATOM
      1 N          -0.2602    2.2652    1.5570 N.4       1 OAS1        0.0000
      2 CA          0.7230    1.1735    1.5134 C.3       1 OAS1        0.0000
      3 CB          0.2220    0.0739    0.5768 C.3       1 OAS1        0.0000
      4 OG         -1.0462   -0.4364    1.0619 O.3       1 OAS1        0.0000
      5 C           2.0405    1.7036    1.0099 C.2       1 OAS1        0.0000
      6 O           2.0631    2.6308    0.2374 O.co2     1 OAS1        0.0000
      7 CE         -2.9948   -1.9438    0.8973 C.3       1 OAS1        0.0000
      8 CD         -1.6781   -1.4141    0.3941 C.2       1 OAS1        0.0000
      9 OD         -1.1895   -1.8697   -0.6128 O.2       1 OAS1        0.0000
     10 OXT         3.1893    1.1430    1.4192 O.co2     1 OAS1        0.0000
     11 H2         -0.3489    2.6109    0.6135 H         1 OAS1        0.0000
     12 HA          0.8545    0.7651    2.5155 H         1 OAS1        0.0000
     13 HB1         0.9508   -0.7356    0.5446 H         1 OAS1        0.0000
     14 HB2         0.0903    0.4829   -0.4246 H         1 OAS1        0.0000
     15 HE1        -3.3523   -2.7270    0.2315 H         1 OAS1        0.0000
     16 HE2        -2.8638   -2.3516    1.8987 H         1 OAS1        0.0000
     17 HE3        -3.7237   -1.1336    0.9301 H         1 OAS1        0.0000
     18 H1          0.0076    2.9920    2.2047 H         1 OAS1        0.0000
     19 H3         -1.1504    1.8864    1.8469 H         1 OAS1        0.0000
@<TRIPOS>BOND
     1    5    2 1
     2    5    6 2
     3    5   10 1
     4    8    4 1
     5    8    7 1
     6    8    9 2
     7    7   17 1
     8    7   15 1
     9    7   16 1
    10    2    1 1
    11    2    3 1
    12    2   12 1
    13    3    4 1
    14    3   13 1
    15    3   14 1
    16   18    1 1
    17   11    1 1
    18   19    1 1
@<TRIPOS>SUBSTRUCTURE
     1 OAS1        2 RESIDUE           4 A     OAS     0 ROOT
