@<TRIPOS>MOLECULE
YOF.pdb
24 24 1 0 0
SMALL
AMBER ff99SB


@<TRIPOS>ATOM
      1 N          -1.7460   -0.7070    0.9060 N.4       1 YOF1       -0.8356
      2 CA         -1.8880    0.1240   -0.2970 C.3       1 YOF1       -0.0725
      3 C          -3.2430   -0.1110   -0.9120 C.2       1 YOF1        0.9376
      4 O          -3.7840   -1.1830   -0.7920 O.co2     1 YOF1       -0.8003
      5 OXT        -3.8510    0.8750   -1.5920 O.co2     1 YOF1       -0.7083
      6 CB         -0.7990   -0.2490   -1.3040 C.3       1 YOF1       -0.0471
      7 CG          0.5560   -0.0140   -0.6910 C.ar      1 YOF1       -0.1263
      8 CD1         1.1750    1.2130   -0.8330 C.ar      1 YOF1       -0.1160
      9 CD2         1.1810   -1.0300    0.0100 C.ar      1 YOF1       -0.1340
     10 CE1         2.4180    1.4300   -0.2660 C.ar      1 YOF1        0.0449
     11 CE2         2.4230   -0.8190    0.5730 C.ar      1 YOF1       -0.1350
     12 CZ          3.0470    0.4120    0.4370 C.ar      1 YOF1        0.1011
     13 OH          4.2710    0.6210    0.9920 O.3       1 YOF1       -0.4841
     14 FE1         3.0220    2.6310   -0.4000 F         1 YOF1       -0.1379
     15 H3         -0.7930   -0.5980    1.2230 H         1 YOF1        0.4248
     16 H2         -1.8440   -1.6660    0.6080 H         1 YOF1        0.4848
     17 HA         -1.7870    1.1750   -0.0260 H         1 YOF1        0.0897
     18 HB1        -0.8990   -1.2990   -1.5750 H         1 YOF1        0.0727
     19 HB2        -0.9050    0.3680   -2.1970 H         1 YOF1        0.1177
     20 HD1         0.6850    2.0040   -1.3790 H         1 YOF1        0.1630
     21 HD2         0.6950   -1.9890    0.1160 H         1 YOF1        0.1380
     22 HE2         2.9100   -1.6140    1.1200 H         1 YOF1        0.1610
     23 HH          4.9250    0.3750    0.3260 H         1 YOF1        0.4360
     24 H1         -2.4150   -0.4600    1.6210 H         1 YOF1        0.4258
@<TRIPOS>BOND
     1    3    2 1
     2    3    4 2
     3    3    5 1
     4    2    1 1
     5    2    6 1
     6    2   17 1
     7    6    7 1
     8    6   18 1
     9    6   19 1
    10    8   10 ar
    11    8    7 ar
    12    8   20 1
    13    9    7 ar
    14    9   11 ar
    15    9   21 1
    16   10   12 ar
    17   10   14 1
    18   11   12 ar
    19   11   22 1
    20   12   13 1
    21   15    1 1
    22   24    1 1
    23   16    1 1
    24   23   13 1
@<TRIPOS>SUBSTRUCTURE
     1 YOF1        2 RESIDUE           4 A     YOF     0 ROOT
