@<TRIPOS>MOLECULE
ME0.pdb
21 20 1 0 0
SMALL
AMBER ff99SB


@<TRIPOS>ATOM
      1 C           2.8041    0.5657   -0.5605 C.2       1 ME01        0.9356
      2 N           1.5186   -1.4550   -0.9716 N.4       1 ME01       -0.8396
      3 O           3.6444   -0.1457   -0.0616 O.co2     1 ME01       -0.8003
      4 CA          1.4418    0.0097   -0.8858 C.3       1 ME01       -0.0705
      5 CB          0.4537    0.4050    0.2131 C.3       1 ME01       -0.0864
      6 SD         -2.1253    0.4177    1.1249 S.3       1 ME01       -0.2962
      7 CE         -3.7085   -0.1981    0.4895 C.3       1 ME01        0.1925
      8 OZ         -3.7583   -1.6193    0.6330 O.3       1 ME01       -0.6398
      9 CG         -0.9534   -0.0513   -0.1776 C.3       1 ME01       -0.0213
     10 OXT         3.0837    1.8531   -0.8197 O.co2     1 ME01       -0.7253
     11 HN1         2.1157   -1.7411   -1.7328 H         1 ME01        0.4268
     12 HN2         1.8298   -1.8521   -0.0985 H         1 ME01        0.4738
     13 HA          1.1036    0.4128   -1.8415 H         1 ME01        0.0837
     14 HB1         0.7430   -0.0690    1.1499 H         1 ME01        0.0707
     15 HB2         0.4623    1.4885    0.3363 H         1 ME01        0.1207
     16 HE1        -4.5257    0.2526    1.0529 H         1 ME01        0.0777
     17 HE2        -3.8049    0.0650   -0.5631 H         1 ME01        0.0627
     18 HZ         -4.5808   -2.0173    0.3134 H         1 ME01        0.4200
     19 HG1        -1.2428    0.4237   -1.1154 H         1 ME01        0.0907
     20 HG2        -0.9621   -1.1348   -0.3018 H         1 ME01        0.0747
     21 HN3         0.5893   -1.8041   -1.1585 H         1 ME01        0.4488
@<TRIPOS>BOND
     1    1    3 2
     2    1    4 1
     3    1   10 1
     4    4    2 1
     5    4    5 1
     6    4   13 1
     7    5    9 1
     8    5   14 1
     9    5   15 1
    10    7    6 1
    11    7    8 1
    12    7   16 1
    13    7   17 1
    14    9    6 1
    15    9   19 1
    16    9   20 1
    17   21    2 1
    18   18    8 1
    19   11    2 1
    20   12    2 1
@<TRIPOS>SUBSTRUCTURE
     1 ME01        4 RESIDUE           4 A     ME0     0 ROOT
