@<TRIPOS>MOLECULE
TFG4.pdb
23 23 1 0 0
SMALL
AMBER ff99SB


@<TRIPOS>ATOM
      1 N           2.3530    4.1250    1.3590 N.4       1 TFG4   -0.8316
      2 CA          2.0910    3.7120   -0.0200 C.3       1 TFG4   -0.0372
      3 C           1.4560    4.8360   -0.6970 C.2       1 TFG4    0.9426
      4 O           0.5000    5.4300   -0.2130 O.co2     1 TFG4   -0.8043
      5 CB          1.3430    2.4120   -0.0130 C.ar      1 TFG4   -0.0893
      6 CG1         2.0630    1.1890   -0.0100 C.ar      1 TFG4   -0.1180
      7 CG2        -0.0720    2.3400    0.0260 C.ar      1 TFG4   -0.1080
      8 CD1         1.3970   -0.0510   -0.0030 C.ar      1 TFG4   -0.0880
      9 CD2        -0.7400    1.1020    0.0120 C.ar      1 TFG4   -0.0840
     10 CE         -0.0060   -0.0950   -0.0010 C.ar      1 TFG4   -0.1523
     11 OXT         1.9040    5.2740   -1.7430 O.co2     1 TFG4   -0.6873
     12 CH        -0.7380   -1.4500   -0.0140 C.3       1 TFG4    0.6862
     13 FH1          0.0180   -2.3640   -0.6590 F         1 TFG4   -0.2343
     14 FH2         -0.9530   -1.8580    1.2550 F         1 TFG4   -0.2383
     15 FH3         -1.9210   -1.3160   -0.6500 F         1 TFG4   -0.2313
     16 HA          2.9970    3.5220   -0.5950 H         1 TFG4    0.0987
     17 HG2        -0.6480    3.2530    0.0680 H         1 TFG4    0.1800
     18 HD1         1.9660   -0.9690    0.0010 H         1 TFG4    0.1560
     19 HD2        -1.8200    1.0730    0.0110 H         1 TFG4    0.1600
     20 H1          2.4630    3.3060    1.9400 H         1 TFG4    0.4208
     21 H2          3.1980    4.6760    1.3910 H         1 TFG4    0.4328
     22 H3          1.5780    4.6760    1.6990 H         1 TFG4    0.4828
     23 HG1         3.1428    1.2102   -0.0131 H         1 TFG4    0.1420
@<TRIPOS>BOND
     1    3    2 1
     2    3    4 2
     3    3   11 1
     4   12   10 1
     5   12   13 1
     6   12   14 1
     7   12   15 1
     8    2    5 1
     9    2   16 1
    10    2    1 1
    11    5    6 ar
    12    5    7 ar
    13    8   10 ar
    14    8    6 ar
    15    8   18 1
    16    9   10 ar
    17    9    7 ar
    18    9   19 1
    19    7   17 1
    20   20    1 1
    21   21    1 1
    22   22    1 1
    23   23    6 1
@<TRIPOS>SUBSTRUCTURE
     1 TFG4     2 RESIDUE           4 A     TFG4     0 ROOT
