@<TRIPOS>MOLECULE
LMQ.pdb
23 22 1 0 0
SMALL
AMBER ff99SB


@<TRIPOS>ATOM
      1 N           0.8826    2.0755   -0.6456 N.4       1 LMQ1       -0.8266
      2 CA          1.0553    0.9369    0.2654 C.3       1 LMQ1       -0.0775
      3 CB         -0.0875   -0.0602    0.0578 C.3       1 LMQ1       -0.0567
      4 CG2         0.0913   -1.2472    1.0077 C.3       1 LMQ1       -0.1011
      5 CG1        -1.4219    0.6288    0.3481 C.3       1 LMQ1       -0.1754
      6 CD         -2.5535   -0.3143    0.0273 C.2       1 LMQ1        0.6611
      7 OE1        -2.3151   -1.4275   -0.3926 O.2       1 LMQ1       -0.6781
      8 NE2        -3.8302    0.0799    0.2060 N.am      1 LMQ1       -0.6450
      9 C           2.3706    0.2579   -0.0195 C.2       1 LMQ1        0.9326
     10 O           2.9176    0.4250   -1.0848 O.co2     1 LMQ1       -0.7973
     11 OXT         2.9345   -0.5304    0.9083 O.co2     1 LMQ1       -0.7233
     12 H3          1.5887    2.7772   -0.4846 H         1 LMQ1        0.4348
     13 H2          0.8891    1.7715   -1.6095 H         1 LMQ1        0.4718
     14 HA          1.0460    1.2912    1.2957 H         1 LMQ1        0.0897
     15 HB         -0.0783   -0.4145   -0.9715 H         1 LMQ1        0.0797
     16 HG21        0.0819   -0.8918    2.0380 H         1 LMQ1        0.0357
     17 HG22       -0.7227   -1.9560    0.8599 H         1 LMQ1        0.0327
     18 HG23        1.0432   -1.7366    0.8018 H         1 LMQ1        0.1047
     19 HG11       -1.4681    0.9041    1.4025 H         1 LMQ1        0.0757
     20 HG12       -1.5110    1.5239   -0.2663 H         1 LMQ1        0.0697
     21 HE21       -4.0208    0.9689    0.5416 H         1 LMQ1        0.3185
     22 HE22       -4.5585   -0.5277   -0.0004 H         1 LMQ1        0.3265
     23 H1         -0.0177    2.4918   -0.4561 H         1 LMQ1        0.4488
@<TRIPOS>BOND
     1    9    2 1
     2    9   10 2
     3    9   11 1
     4    2    1 1
     5    2    3 1
     6    2   14 1
     7    3    4 1
     8    3    5 1
     9    3   15 1
    10    4   18 1
    11    4   16 1
    12    4   17 1
    13    6    5 1
    14    6    7 2
    15    6    8 am
    16    5   19 1
    17    5   20 1
    18   12    1 1
    19   23    1 1
    20   13    1 1
    21   21    8 1
    22   22    8 1
@<TRIPOS>SUBSTRUCTURE
     1 LMQ1        2 RESIDUE           4 A     LMQ     0 ROOT
