@<TRIPOS>MOLECULE
26P.pdb
23 22 1 0 0
SMALL
AMBER ff99SB


@<TRIPOS>ATOM
      1 C           3.9998   -1.0569    0.2758 C.2       1 26P1        0.9226
      2 O           4.6461   -1.2903   -0.7171 O.co2     1 26P1       -0.8213
      3 OXT         4.3111   -1.6547    1.4365 O.co2     1 26P1       -0.7653
      4 CA          2.8427   -0.0932    0.2109 C.3       1 26P1       -0.0405
      5 N           3.1043    0.9167   -0.8229 N.4       1 26P1       -0.8396
      6 CB          1.5620   -0.8540   -0.1330 C.3       1 26P1       -0.0894
      7 CG          0.3892    0.1231   -0.1991 C.3       1 26P1       -0.0844
      8 CD         -0.8927   -0.6379   -0.5423 C.3       1 26P1       -0.1964
      9 CE         -2.0486    0.3250   -0.6081 C.2       1 26P1        0.4411
     10 OE         -1.8672    1.5001   -0.4000 O.2       1 26P1       -0.5931
     11 CZ         -3.4169   -0.1716   -0.9278 C.2       1 26P1        0.8546
     12 OZ1        -3.5996   -1.3520   -1.1359 O.co2     1 26P1       -0.8643
     13 OZ2        -4.4497    0.6881   -0.9865 O.co2     1 26P1       -0.7513
     14 HA          2.7252    0.3987    1.1764 H         1 26P1        0.0817
     15 HB1         1.3671   -1.6035    0.6350 H         1 26P1        0.0977
     16 HB2         1.6794   -1.3459   -1.0985 H         1 26P1        0.0487
     17 HG1         0.2717    0.6150    0.7664 H         1 26P1        0.0337
     18 HG2         0.5828    0.8714   -0.9668 H         1 26P1        0.0567
     19 HD1        -1.0866   -1.3865    0.2263 H         1 26P1        0.0667
     20 HD2        -0.7743   -1.1309   -1.5078 H         1 26P1        0.0657
     21 HN1         2.3293    1.5626   -0.8664 H         1 26P1        0.4758
     22 HN2         3.2140    0.4614   -1.7178 H         1 26P1        0.4608
     23 HN3         3.9498    1.4197   -0.5957 H         1 26P1        0.4408
@<TRIPOS>BOND
     1    1    2 2
     2    1    3 1
     3    1    4 1
     4    4    5 1
     5    4    6 1
     6    4   14 1
     7    6   16 1
     8    6    7 1
     9    6   15 1
    10    7   17 1
    11    7   18 1
    12    7    8 1
    13    8   19 1
    14    8   20 1
    15    8    9 1
    16    9   10 2
    17    9   11 2
    18   11   12 2
    19   11   13 2
    20   21    5 1
    21   22    5 1
    22   23    5 1
@<TRIPOS>SUBSTRUCTURE
     1 26P1        4 RESIDUE           4 A     26P     0 ROOT
