@<TRIPOS>MOLECULE
BCS.pdb
27 27 1 0 0
SMALL
AMBER ff99SB


@<TRIPOS>ATOM
      1 N          -3.0677   -1.7641   -0.0515 N.4       1 BCS1       -0.8376
      2 CA         -3.2710   -0.3150    0.0793 C.3       1 BCS1       -0.0725
      3 CB         -2.1487    0.4244   -0.6498 C.3       1 BCS1       -0.0083
      4 SG         -0.5510   -0.0292    0.0778 S.3       1 BCS1       -0.3802
      5 CD          0.5598    0.9658   -0.9531 C.3       1 BCS1        0.0640
      6 CE          1.9849    0.7430   -0.5159 C.ar      1 BCS1       -0.0893
      7 CZ1         2.7329   -0.2652   -1.0909 C.ar      1 BCS1       -0.1180
      8 CZ2         2.5456    1.5523    0.4538 C.ar      1 BCS1       -0.1080
      9 CH1         4.0401   -0.4709   -0.6903 C.ar      1 BCS1       -0.1310
     10 CH2         3.8505    1.3451    0.8569 C.ar      1 BCS1       -0.1280
     11 CJ          4.5994    0.3346    0.2840 C.ar      1 BCS1       -0.1180
     12 C          -4.5984    0.0611   -0.5256 C.2       1 BCS1        0.9406
     13 O          -5.0473   -0.5798   -1.4441 O.co2     1 BCS1       -0.7973
     14 OXT        -5.2811    1.1114   -0.0423 O.co2     1 BCS1       -0.7053
     15 H3         -2.1302   -1.9553    0.2698 H         1 BCS1        0.4428
     16 H2         -3.0838   -1.9712   -1.0386 H         1 BCS1        0.4778
     17 HA         -3.2616   -0.0412    1.1338 H         1 BCS1        0.0997
     18 HB1        -2.1581    0.1506   -1.7043 H         1 BCS1        0.0837
     19 HB2        -2.2997    1.4996   -0.5534 H         1 BCS1        0.1217
     20 HD1         0.4487    0.6731   -1.9961 H         1 BCS1        0.0687
     21 HD2         0.3071    2.0214   -0.8445 H         1 BCS1        0.0827
     22 HZ1         2.2963   -0.8946   -1.8522 H         1 BCS1        0.1300
     23 HZ2         1.9598    2.3418    0.9024 H         1 BCS1        0.1430
     24 HH1         4.6259   -1.2604   -1.1389 H         1 BCS1        0.1350
     25 HH2         4.2871    1.9744    1.6182 H         1 BCS1        0.1380
     26 HJ          5.6209    0.1751    0.5958 H         1 BCS1        0.1360
     27 H1         -3.7593   -2.2929    0.4595 H         1 BCS1        0.4288
@<TRIPOS>BOND
     1   12    2 1
     2   12   13 2
     3   12   14 1
     4    2    3 1
     5    2    1 1
     6    2   17 1
     7    3    4 1
     8    3   18 1
     9    3   19 1
    10    5    4 1
    11    5    6 1
    12    5   20 1
    13    5   21 1
    14    6    7 ar
    15    6    8 ar
    16   11    9 ar
    17   11   10 ar
    18   11   26 1
    19    9    7 ar
    20    9   24 1
    21   10    8 ar
    22   10   25 1
    23    7   22 1
    24    8   23 1
    25   15    1 1
    26   27    1 1
    27   16    1 1
@<TRIPOS>SUBSTRUCTURE
     1 BCS1        2 RESIDUE           4 A     BCS     0 ROOT
