@<TRIPOS>MOLECULE
AS2.pdb
15 14 1 0 0
SMALL
NO_CHARGES


@<TRIPOS>ATOM
      1 N          -0.2510    0.6215    1.1503 N.4       1 AS21        0.0000
      2 CA          0.7719   -0.3881    0.8537 C.3       1 AS21        0.0000
      3 C           1.9475    0.2701    0.1758 C.2       1 AS21        0.0000
      4 O           2.1132    1.4629    0.2786 O.co2     1 AS21        0.0000
      5 CB          0.1818   -1.4547   -0.0706 C.3       1 AS21        0.0000
      6 CG         -1.0132   -2.0891    0.5933 C.2       1 AS21        0.0000
      7 OG         -2.0789   -2.1079    0.0259 O.2       1 AS21        0.0000
      8 OXT         2.8116   -0.4689   -0.5360 O.co2     1 AS21        0.0000
      9 HA          1.1012   -0.8534    1.7827 H         1 AS21        0.0000
     10 HB1        -0.1265   -0.9911   -1.0089 H         1 AS21        0.0000
     11 HB2         0.9349   -2.2172   -0.2729 H         1 AS21        0.0000
     12 HG         -0.9157   -2.5269    1.5752 H         1 AS21        0.0000
     13 H1         -0.5156    1.0607    0.2799 H         1 AS21        0.0000
     14 H2         -1.0766    0.1972    1.5461 H         1 AS21        0.0000
     15 H3          0.1140    1.3391    1.7605 H         1 AS21        0.0000
@<TRIPOS>BOND
     1    3    2 1
     2    3    4 2
     3    3    8 2
     4    2    5 1
     5    2    9 1
     6    2    1 1
     7    5    6 1
     8    5   10 1
     9    5   11 1
    10    6   12 1
    11    6    7 2
    12   13    1 1
    13   14    1 1
    14   15    1 1
@<TRIPOS>SUBSTRUCTURE
     1 AS21        2 RESIDUE           4 A     AS2     0 ROOT
