@<TRIPOS>MOLECULE
2HF1.pdb
20 20 1 0 0
SMALL
AMBER ff99SB


@<TRIPOS>ATOM
      1 C          -2.9780   -0.0580   -0.0320 C.2       1 2HF1    0.9396
      2 N          -1.1590   -1.5010    0.6860 N.4       1 2HF1   -0.8316
      3 O          -3.5380   -1.0610   -0.4080 O.co2     1 2HF1   -0.7963
      4 F1          3.9950   -0.8060   -0.0080 F         1 2HF1   -0.1852
      5 CA         -1.5270   -0.1140    0.3720 C.3       1 2HF1   -0.0775
      6 CB         -0.6560    0.3980   -0.7760 C.3       1 2HF1   -0.0201
      7 CG          0.7810    0.4600   -0.3290 C.ar      1 2HF1   -0.2249
      8 ND1         1.7080   -0.4930   -0.5210 N.ar      1 2HF1   -0.3249
      9 CD2         1.3620    1.4800    0.3260 C.ar      1 2HF1    0.2712
     10 CE1         2.8430   -0.1030   -0.0030 C.ar      1 2HF1    0.5997
     11 NE2         2.6710    1.1240    0.5370 N.ar      1 2HF1   -0.6440
     12 OXT        -3.6450    1.1060    0.0180 O.co2     1 2HF1   -0.7043
     13 HN3        -1.2940   -2.1000   -0.1140 H         1 2HF1    0.4818
     14 HN2        -0.2090   -1.5560    1.0230 H         1 2HF1    0.4288
     15 HA         -1.3720    0.5110    1.2520 H         1 2HF1    0.0957
     16 HB1        -0.7440   -0.2780   -1.6280 H         1 2HF1    0.0757
     17 HB2        -0.9890    1.3950   -1.0680 H         1 2HF1    0.1207
     18 HD1         1.5580   -1.3400   -0.9720 H         1 2HF1    0.3207
     19 HD2         0.8890    2.4030    0.6290 H         1 2HF1    0.0441
     20 HN1        -1.7690   -1.8250    1.4230 H         1 2HF1    0.4318
@<TRIPOS>BOND
     1    1    5 1
     2    1    3 2
     3    1   12 1
     4    5    6 1
     5    5   15 1
     6    5    2 1
     7    6    7 1
     8    6   16 1
     9    6   17 1
    10    9    7 ar
    11    9   19 1
    12    9   11 ar
    13   10    4 1
    14   10    8 ar
    15   10   11 ar
    16    7    8 ar
    17   18    8 1
    18   20    2 1
    19   14    2 1
    20   13    2 1
@<TRIPOS>SUBSTRUCTURE
     1 2HF1     5 RESIDUE           4 A     2HF1     0 ROOT
