@<TRIPOS>MOLECULE
4CY.pdb
18 17 1 0 0
SMALL
AMBER ff99SB


@<TRIPOS>ATOM
      1 C           2.7759    0.3612   -0.3317 C.2       1 4CY1        0.9416
      2 N           1.5108   -1.6647    0.1187 N.4       1 4CY1       -0.8366
      3 O           3.5112    0.0242    0.5665 O.co2     1 4CY1       -0.7923
      4 CA          1.4637   -0.3512   -0.5382 C.3       1 4CY1       -0.0795
      5 CB          0.3314    0.4808    0.0664 C.3       1 4CY1       -0.0914
      6 CE         -3.7780   -0.1812   -0.0547 C.1       1 4CY1        0.1739
      7 SD         -2.3519    0.8056    0.4636 S.3       1 4CY1        0.0138
      8 CG         -1.0117   -0.1795   -0.2517 C.3       1 4CY1       -0.0703
      9 NZ         -4.6727   -0.8008   -0.3791 N.1       1 4CY1       -0.3188
     10 OXT         3.1251    1.3729   -1.1424 O.co2     1 4CY1       -0.7023
     11 HN1         2.2093   -2.2565   -0.3059 H         1 4CY1        0.4188
     12 HB1         0.4612    0.5406    1.1472 H         1 4CY1        0.0687
     13 HB2         0.3521    1.4857   -0.3588 H         1 4CY1        0.1347
     14 HG1        -1.1403   -0.2385   -1.3315 H         1 4CY1        0.0847
     15 HG2        -1.0325   -1.1832    0.1728 H         1 4CY1        0.0457
     16 HN2         1.6744   -1.5669    1.1113 H         1 4CY1        0.4908
     17 HA          1.2875   -0.4850   -1.6047 H         1 4CY1        0.0937
     18 HN3         0.6118   -2.1067   -0.0051 H         1 4CY1        0.4248
@<TRIPOS>BOND
     1    1    4 1
     2    1    3 2
     3    1   10 1
     4    4    5 1
     5    4   17 1
     6    4    2 1
     7    5    8 1
     8    5   12 1
     9    5   13 1
    10    6    9 3
    11    6    7 1
    12    8   14 1
    13    8   15 1
    14    8    7 1
    15   11    2 1
    16   16    2 1
    17   18    2 1
@<TRIPOS>SUBSTRUCTURE
     1 4CY1        4 RESIDUE           4 A     4CY     0 ROOT
