@<TRIPOS>MOLECULE
BHD.pdb
16 15 1 0 0
SMALL
AMBER ff99SB


@<TRIPOS>ATOM
      1 N          -1.9029   -0.3306   -1.7650 N.4       1 BHD1       -0.8466
      2 CA         -0.6733   -0.1813   -0.9762 C.3       1 BHD1       -0.0455
      3 C          -0.3816    1.2826   -0.7702 C.2       1 BHD1        0.9306
      4 O          -0.7253    2.0893   -1.6007 O.co2     1 BHD1       -0.8513
      5 CB          0.4928   -0.8331   -1.7196 C.3       1 BHD1        0.0181
      6 OB          0.2254   -2.2252   -1.8986 O.3       1 BHD1       -0.6068
      7 CG          1.7570   -0.6647   -0.9183 C.2       1 BHD1        0.8746
      8 OD1         2.3667   -1.6352   -0.5383 O.co2     1 BHD1       -0.8963
      9 OD2         2.2074    0.5653   -0.6262 O.co2     1 BHD1       -0.7543
     10 OXT         0.2585    1.6902    0.3356 O.co2     1 BHD1       -0.7583
     11 HA         -0.8020   -0.6652   -0.0080 H         1 BHD1        0.0837
     12 HB          0.6142   -0.3581   -2.6940 H         1 BHD1        0.1097
     13 HOB         0.9576   -2.6331   -2.3653 H         1 BHD1        0.4030
     14 H1         -2.0985   -1.3117   -1.9033 H         1 BHD1        0.4798
     15 H2         -1.7826    0.1182   -2.6622 H         1 BHD1        0.4558
     16 H3         -2.6728    0.1005   -1.2736 H         1 BHD1        0.4038
@<TRIPOS>BOND
     1    3    2 1
     2    3    4 2
     3    3   10 2
     4    2    5 1
     5    2   11 1
     6    2    1 1
     7    5    7 1
     8    5   12 1
     9    5    6 1
    10    7    8 2
    11    7    9 2
    12   14    1 1
    13   15    1 1
    14   16    1 1
    15   13    6 1
@<TRIPOS>SUBSTRUCTURE
     1 BHD1        2 RESIDUE           4 A     BHD     0 ROOT
