@<TRIPOS>MOLECULE
dipenyl_2.pdb
33 34 1 0 0
SMALL
AMBER ff99SB


@<TRIPOS>ATOM
      1 N          -2.8610    4.0970    1.3090 N.4       1 DIPH1       -0.8313
      2 CA         -1.3990    4.0630    1.2440 C.3       1 DIPH1       -0.0110
      3 CE2        2.9160    3.2240    0.6440 C.ar      1 DIPH1       -0.1273
      4 CD2        1.5330    3.4310    0.7960 C.ar      1 DIPH1       -0.1117
      5 CG1         0.6700    3.6020   -0.3230 C.ar      1 DIPH1       -0.0858
      6 CD1        1.2790    3.5410   -1.6070 C.ar      1 DIPH1       -0.1248
      7 CE1        2.6660    3.3590   -1.7650 C.ar      1 DIPH1       -0.1346
      8 CZ1        3.4840    3.1900   -0.6380 C.ar      1 DIPH1       -0.1262
      9 CZ3       -2.3590   -0.2210   -1.1020 C.ar      1 DIPH1       -0.1253
     10 CE4       -3.1270    0.9120   -1.4150 C.ar      1 DIPH1       -0.1323
     11 CD4       -2.6390    2.2000   -1.1190 C.ar      1 DIPH1       -0.1496
     12 CG3        -1.3710    2.3850   -0.5120 C.ar      1 DIPH1       -0.1253
     13 CD3       -0.6160    1.2220   -0.2000 C.ar      1 DIPH1       -0.1215
     14 CE3       -1.1040   -0.0660   -0.4870 C.ar      1 DIPH1       -0.1294
     15 CB         -0.8330    3.7600   -0.1950 C.3       1 DIPH1        0.0264
     16 C          -0.9980    5.3170    1.8510 C.2       1 DIPH1        0.3524
     17 O          -1.3140    6.3970    1.3770 O.co2     1 DIPH1       -0.5314
     18 OXT        -0.4340    5.3230    2.9300 O.co2     1 DIPH1       -0.4513
     19 HD3        0.3620    1.3230    0.2700 H         1 DIPH1        0.1491
     20 HD4       -3.2530    3.0670   -1.3630 H         1 DIPH1        0.1430
     21 HE4       -4.1020    0.7930   -1.8880 H         1 DIPH1        0.1396
     22 HZ3        -2.7330   -1.2180   -1.3350 H         1 DIPH1        0.1392
     23 HE1        3.1070    3.3490   -2.7610 H         1 DIPH1        0.1301
     24 HD1        0.6620    3.6380   -2.5000 H         1 DIPH1        0.1303
     25 HD2        1.1190    3.4590    1.8040 H         1 DIPH1        0.1748
     26 HE2        3.5500    3.0900    1.5210 H         1 DIPH1        0.1358
     27 HE3       -0.5130   -0.9460   -0.2320 H         1 DIPH1        0.1404
     28 HA         -1.0000    3.2630    1.8670 H         1 DIPH1        0.0905
     29 HN2        -3.1550    4.1030    2.2750 H         1 DIPH1        0.4351
     30 HN1        -3.1990    4.9290    0.8480 H         1 DIPH1        0.4762
     31 HN3        -3.2370    3.2800    0.8480 H         1 DIPH1        0.4279
     32 HZ1         4.5560    3.0320   -0.7590 H         1 DIPH1        0.1307
     33 HB         -1.2160    4.5860   -0.7930 H         1 DIPH1        0.0975
@<TRIPOS>BOND
     1    1   31 1
     2    1   30 1
     3    1   29 1
     4    1    2 1
     5    2   28 1
     6    2   16 1
     7   16   18 1
     8   16   17 2
     9    2   15 1
    10   15   33 1
    11   12   15 1
    12   12   13 ar
    13   13   19 1
    14   13   14 ar
    15   14   27 1
    16    9   14 ar
    17    9   22 1
    18    9   10 ar
    19   10   21 1
    20   10   11 ar
    21   11   20 1
    22   11   12 ar
    23    5   15 1
    24    5    6 ar
    25    6   24 1
    26    6    7 ar
    27    7   23 1
    28    7    8 ar
    29    8   32 1
    30    3    8 ar
    31    3   26 1
    32    3    4 ar
    33    4   25 1
    34    4    5 ar
@<TRIPOS>SUBSTRUCTURE
     1 DIPH1        2 RESIDUE           4 A     DIPH     0 ROOT
