@<TRIPOS>MOLECULE
TIH.pdb
20 20 1 0 0
SMALL
AMBER ff99SB


@<TRIPOS>ATOM
      1 N          22.1880  -19.5900   47.7520 N.4       1 TIH   -0.8336
      2 CA         21.5330  -19.2300   49.0070 C.3       1 TIH   -0.0725
      3 C          20.1970  -19.9190   49.1360 C.2       1 TIH    0.9376
      4 O          19.7650  -20.6780   48.2650 O.co2     1 TIH   -0.8013
      5 CG         22.4700  -16.8160   49.0690 C.ar      1 TIH   -0.1534
      6 CD2        22.9990  -16.1290   47.9700 C.ar      1 TIH   -0.1920
      7 CE2        24.1390  -15.3460   48.2350 C.ar      1 TIH   -0.1530
      8 CE1        24.5750  -15.3610   49.5640 C.ar      1 TIH   -0.1771
      9 CB         21.2920  -17.6920   49.0860 C.3       1 TIH   -0.0191
     10 SD1        23.4760  -16.4030   50.4480 S.2       1 TIH    0.0752
     11 OXT        19.5570  -19.7380   50.1450 O.co2     1 TIH   -0.7113
     12 HN1        23.0780  -19.1170   47.6880 H         1 TIH    0.4288
     13 HN2        22.3350  -20.5890   47.7240 H         1 TIH    0.4258
     14 HN3        21.6040  -19.3140   46.9760 H         1 TIH    0.4818
     15 HA         22.1680  -19.5580   49.8510 H         1 TIH    0.0887
     16 HB1        20.7270  -17.4530   50.0080 H         1 TIH    0.1137
     17 HB2        20.5970  -17.3900   48.2730 H         1 TIH    0.0787
     18 HD2        22.5619  -16.1951   46.9846 H         1 TIH    0.1480
     19 HE2        24.6405  -14.7751   47.4675 H         1 TIH    0.1570
     20 HE1        25.4255  -14.8322   49.9682 H         1 TIH    0.1770
@<TRIPOS>BOND
     1    3    2 1
     2    3    4 2
     3    3   11 1
     4    2    9 1
     5    2   15 1
     6    2    1 1
     7    6    7 ar
     8    6    5 ar
     9    8    7 ar
    10    8   10 ar
    11    5    9 1
    12    5   10 ar
    13    9   16 1
    14    9   17 1
    15   12    1 1
    16   13    1 1
    17   14    1 1
    18   18    6 1
    19   19    7 1
    20   20    8 1
@<TRIPOS>SUBSTRUCTURE
     1 TIH     2 RESIDUE           4 A     TIH     0 ROOT
