@<TRIPOS>MOLECULE
DMP3.pdb
29 29 1 0 0
SMALL
AMBER ff99SB


@<TRIPOS>ATOM
      1 N          22.1880  -19.5900   47.7520 N.4       1 DMP3    0.0000
      2 CA         21.5330  -19.2300   49.0070 C.3       1 DMP3    0.0000
      3 C          20.1970  -19.9190   49.1360 C.2       1 DMP3    0.0000
      4 O          19.7650  -20.6780   48.2650 O.co2     1 DMP3    0.0000
      5 CB         21.2900  -17.6940   49.0850 C.3       1 DMP3    0.0000
      6 CG         22.5350  -16.7980   49.0580 C.ar      1 DMP3    0.0000
      7 CD1        23.2570  -16.5470   50.2290 C.ar      1 DMP3    0.0000
      8 CD2        22.9580  -16.2340   47.8510 C.ar      1 DMP3    0.0000
      9 CE1        24.3930  -15.7440   50.1890 C.ar      1 DMP3    0.0000
     10 CE2        24.0940  -15.4320   47.8130 C.ar      1 DMP3    0.0000
     11 CZ         24.8110  -15.1870   48.9830 C.ar      1 DMP3    0.0000
     12 OXT        19.5570  -19.7380   50.1450 O.co2     1 DMP3    0.0000
     13 CJ         24.4170  -13.2930   46.5310 C.3       1 DMP3    0.0000
     14 CH         24.5510  -14.8260   46.4730 C.3       1 DMP3    0.0000
     15 HA         22.1696  -19.5314   49.8389 H         1 DMP3    0.0000
     16 HB1        20.7568  -17.4907   50.0137 H         1 DMP3    0.0000
     17 HB2        20.6464  -17.4082   48.2530 H         1 DMP3    0.0000
     18 HD1        22.9328  -16.9767   51.1653 H         1 DMP3    0.0000
     19 HD2        22.4010  -16.4215   46.9449 H         1 DMP3    0.0000
     20 HE1        24.9508  -15.5527   51.0938 H         1 DMP3    0.0000
     21 HZ         25.6926  -14.5639   48.9542 H         1 DMP3    0.0000
     22 HH1        25.5918  -15.0930   46.2897 H         1 DMP3    0.0000
     23 HH2        23.9286  -15.2150   45.6671 H         1 DMP3    0.0000
     24 H1         23.0784  -19.1175   47.6888 H         1 DMP3    0.0000
     25 H2         22.3345  -20.5889   47.7234 H         1 DMP3    0.0000
     26 H3         21.6040  -19.3130   46.9759 H         1 DMP3    0.0000
     27 HJ1        24.7403  -12.8634   45.5828 H         1 DMP3    0.0000
     28 HJ2        25.0397  -12.9043   47.3368 H         1 DMP3    0.0000
     29 HJ3        23.3763  -13.0259   46.7149 H         1 DMP3    0.0000
@<TRIPOS>BOND
     1    3    2 1
     2    3    4 2
     3    3   12 1
     4    2    5 1
     5    2    1 1
     6    5    6 1
     7    7    9 ar
     8    7    6 ar
     9    8   10 ar
    10    8    6 ar
    11    9   11 ar
    12   10   14 1
    13   10   11 ar
    14   14   13 1
    15   15    2 1
    16   16    5 1
    17   17    5 1
    18   18    7 1
    19   19    8 1
    20   20    9 1
    21   21   11 1
    22   22   14 1
    23   23   14 1
    24   24    1 1
    25   25    1 1
    26   26    1 1
    27   27   13 1
    28   28   13 1
    29   29   13 1
@<TRIPOS>SUBSTRUCTURE
     1 DMP3     2 RESIDUE           4 A     DMP3     0 ROOT
