@<TRIPOS>MOLECULE
LYS.pdb
 25 24 0 0 0
SMALL
GASTEIGER

@<TRIPOS>ATOM
      1  N         -0.4490   -3.5720   -1.6660 N.4     1  LYS1        0.3871
      2  CA         0.1100   -2.2230   -1.6660 C.3     1  LYS1        0.0205
      3  O          2.2490   -3.3310   -1.6660 O.co2   1  LYS1       -0.2483
      4  CB        -0.4250   -1.4420   -0.4350 C.3     1  LYS1       -0.0561
      5  CG         0.0520    0.0310   -0.3850 C.3     1  LYS1       -0.0558
      6  CD        -0.4030    0.8140    0.8500 C.3     1  LYS1       -0.0690
      7  CE         0.1980    2.2250    0.8040 C.3     1  LYS1       -0.0963
      8  NZ        -0.3720    3.0360    1.8940 N.4     1  LYS1        0.3781
      9  C          1.6500   -2.2900   -1.6660 C.2     1  LYS1        0.3420
     10  OXT        2.3930   -1.0680   -1.6660 O.co2   1  LYS1       -0.2483
     11  H3         0.1790   -4.4510   -1.6660 H       1  LYS1       -0.0889
     12  HA        -0.2090   -1.7130   -2.5940 H       1  LYS1        0.0198
     13  HB1       -0.1280   -1.9660    0.4970 H       1  LYS1        0.0254
     14  HB2       -1.5330   -1.4640   -0.4320 H       1  LYS1        0.0254
     15  HG1       -0.2700    0.5570   -1.3050 H       1  LYS1        0.0264
     16  HG2        1.1570    0.0750   -0.3920 H       1  LYS1        0.0264
     17  HD1       -0.0750    0.2880    1.7700 H       1  LYS1        0.0247
     18  HD2       -1.5090    0.8460    0.8870 H       1  LYS1        0.0247
     19  HE1       -0.0070    2.7160   -0.1700 H       1  LYS1        0.0049
     20  HE2        1.3040    2.1790    0.8930 H       1  LYS1        0.0049
     21  HZ1       -0.5080    2.4650    2.7370 H       1  LYS1       -0.0901
     22  HZ2        0.2610    3.7960    2.1640 H       1  LYS1       -0.0901
     23  HZ3       -1.2470    3.4020    1.5480 H       1  LYS1       -0.0901
     24  H1        -1.0280   -3.6380   -2.4910 H       1  LYS1       -0.0889
     25  H2        -1.0610   -3.6420   -0.8650 H       1  LYS1       -0.0889
@<TRIPOS>BOND
     1     9    10    1
     2     2     4    1
     3     2     9    1
     4     2    12    1
     5     4     5    1
     6     4    13    1
     7     4    14    1
     8     6     7    1
     9     6    17    1
    10     6    18    1
    11     7     8    1
    12     7    19    1
    13     7    20    1
    14     5     6    1
    15     5    15    1
    16     5    16    1
    17     1     2    1
    18     1    11    1
    19     1    24    1
    20     1    25    1
    21     8    21    1
    22     8    22    1
    23     8    23    1
    24     3     9    2
