@<TRIPOS>MOLECULE
NAO2.pdb
30 31 1 0 0
SMALL
AMBER ff99SB


@<TRIPOS>ATOM
      1 N          14.0250   32.0590  -72.0160 N.4       1 NAO2   -0.8356
      2 CA         13.6090   33.1970  -71.1870 C.3       1 NAO2   -0.0685
      3 C          12.5980   34.0800  -71.9210 C.2       1 NAO2    0.9366
      4 O          11.3950   34.0340  -71.6430 O.co2     1 NAO2   -0.7103
      5 CB         14.8270   34.0310  -70.7630 C.3       1 NAO2   -0.0511
      6 CG         15.8840   33.2430  -70.0260 C.ar      1 NAO2   -0.1063
      7 CD1        16.9730   32.7040  -70.7110 C.ar      1 NAO2   -0.1690
      8 CD2        15.7880   33.0400  -68.6470 C.ar      1 NAO2   -0.1130
      9 CE1        17.9500   31.9790  -70.0360 C.ar      1 NAO2   -0.0960
     10 CE2        16.7600   32.3170  -67.9610 C.ar      1 NAO2   -0.0010
     11 CZ         17.8420   31.7860  -68.6550 C.ar      1 NAO2   -0.0730
     12 CJ1        18.6630   30.8420  -66.6180 C.ar      1 NAO2   -0.1890
     13 CJ2        17.5700   31.3750  -65.9160 C.ar      1 NAO2    0.1291
     14 OXT        12.9880   34.8460  -72.8000 O.co2     1 NAO2   -0.8033
     15 OJ2        17.4710   31.1900  -64.5020 O.3       1 NAO2   -0.4921
     16 CH1        18.7630   31.0250  -68.0070 C.ar      1 NAO2   -0.0790
     17 CH2        16.5750   32.0900  -66.6020 C.ar      1 NAO2   -0.1600
     18 H3         14.3140   32.2340  -72.9680 H         1 NAO2    0.4828
     19 HA         13.1320   32.8080  -70.2870 H         1 NAO2    0.0897
     20 HB1        14.4820   34.8340  -70.1120 H         1 NAO2    0.1157
     21 HB2        15.2760   34.4710  -71.6530 H         1 NAO2    0.0717
     22 HD1        17.0590   32.8510  -71.7770 H         1 NAO2    0.1310
     23 HD2        14.9480   33.4500  -68.1060 H         1 NAO2    0.1470
     24 HE1        18.7890   31.5670  -70.5770 H         1 NAO2    0.1360
     25 HJ1        19.4270   30.2910  -66.0900 H         1 NAO2    0.1390
     26 HH1        19.5690   30.5630  -68.5580 H         1 NAO2    0.1380
     27 HH2        15.6950   32.4520  -66.0910 H         1 NAO2    0.1580
     28 HJ2        17.9710   31.8750  -64.0530 H         1 NAO2    0.4220
     29 H1         13.2452   31.4183  -72.0548 H         1 NAO2    0.4248
     30 H2         14.7855   31.5926  -71.5424 H         1 NAO2    0.4268
@<TRIPOS>BOND
     1    1    2 1
     2    1   18 1
     3    2    3 1
     4    2    5 1
     5    2   19 1
     6    3    4 2
     7    3   14 1
     8    5    6 1
     9    5   20 1
    10    5   21 1
    11    6    7 ar
    12    6    8 ar
    13    7    9 ar
    14    7   22 1
    15    8   10 ar
    16    8   23 1
    17    9   11 ar
    18    9   24 1
    19   10   11 ar
    20   10   17 ar
    21   11   16 ar
    22   12   13 ar
    23   12   16 ar
    24   12   25 1
    25   13   15 1
    26   13   17 ar
    27   15   28 1
    28   16   26 1
    29   17   27 1
    30   29    1 1
    31   30    1 1
@<TRIPOS>SUBSTRUCTURE
     1 NAO2     2 RESIDUE           4 B     NAO2     0 ROOT
