@<TRIPOS>MOLECULE
ABA.pdb
16 15 1 0 0
SMALL
AMBER ff99SB


@<TRIPOS>ATOM
      1 N          -1.6280    1.1068   -0.6297 N.4       1 ABA1       -0.8386
      2 CA         -1.0161    0.0142    0.1179 C.3       1 ABA1       -0.0725
      3 C           0.0867    0.7016    0.7382 C.2       1 ABA1        0.9356
      4 O           0.5921    1.6817    0.2207 O.co2     1 ABA1       -0.8033
      5 CB         -0.6136   -1.1783   -0.7981 C.3       1 ABA1       -0.0974
      6 CG         -1.8267   -1.8611   -1.4712 C.3       1 ABA1       -0.1071
      7 OXT         0.3802    0.4526    1.8937 O.co2     1 ABA1       -0.7093
      8 HA         -1.7067   -0.3337    0.8850 H         1 ABA1        0.0887
      9 HB1        -0.0909   -1.9199   -0.1924 H         1 ABA1        0.1167
     10 HB2         0.0621   -0.8171   -1.5729 H         1 ABA1        0.0557
     11 HG1        -1.4810   -2.6838   -2.0963 H         1 ABA1        0.0547
     12 HG2        -2.4987   -2.2441   -0.7043 H         1 ABA1        0.0417
     13 HG3        -2.3558   -1.1340   -2.0884 H         1 ABA1        0.0057
     14 H1         -2.4356    0.7635   -1.1283 H         1 ABA1        0.4228
     15 H2         -1.9116    1.8343    0.0111 H         1 ABA1        0.4188
     16 H3         -0.9593    1.4796   -1.2877 H         1 ABA1        0.4878
@<TRIPOS>BOND
     1    3    2 1
     2    3    4 2
     3    3    7 2
     4    2    5 1
     5    2    8 1
     6    2    1 1
     7    5    6 1
     8    5    9 1
     9    5   10 1
    10    6   11 1
    11    6   12 1
    12    6   13 1
    13   14    1 1
    14   15    1 1
    15   16    1 1
@<TRIPOS>SUBSTRUCTURE
     1 ABA1        2 RESIDUE           4 A     ABA     0 ROOT
