@<TRIPOS>MOLECULE
THG3.mol2
17 17 1 0 0
SMALL
AMBER ff99SB


@<TRIPOS>ATOM
      1 CA          3.4218    1.7759   -0.0585 C.3       1 THG3    0.0188
      2 C           4.3980    0.8432    0.4958 C.2       1 THG3    0.9376
      3 CB          2.0103    1.2979   -0.0267 C.ar      1 THG3   -0.1633
      4 O           5.2985    0.3310   -0.1659 O.co2     1 THG3   -0.8013
      5 OXT         4.3369    0.5397    1.6761 O.co2     1 THG3   -0.7143
      6 N           3.7460    2.1665   -1.4385 N.4       1 THG3   -0.8436
      7 SD1        -0.1364   -0.1013   -0.0029 S.2       1 THG3    0.0742
      8 CG1         1.6154   -0.0512   -0.0754 C.ar      1 THG3   -0.1061
      9 CG2         0.9230    2.2023    0.0379 C.ar      1 THG3   -0.1840
     10 CD2        -0.3531    1.6354    0.0687 C.ar      1 THG3   -0.1791
     11 HA          3.4656    2.6808    0.5476 H         1 THG3    0.0957
     12 HG1         2.2737   -0.9045   -0.1450 H         1 THG3    0.2240
     13 HG2         1.0721    3.2717    0.0620 H         1 THG3    0.1340
     14 HD2        -1.2923    2.1656    0.1257 H         1 THG3    0.1730
     15 H1          3.0464    2.8100   -1.7800 H         1 THG3    0.4278
     16 H2          4.6517    2.6130   -1.4578 H         1 THG3    0.4188
     17 H3          3.7630    1.3449   -2.0258 H         1 THG3    0.4868
@<TRIPOS>BOND
     1    1    2 1
     2    1    3 1
     3    2    4 2
     4    2    5 1
     5    1    6 1
     6    8    3 ar
     7    3    9 ar
     8    7    8 ar
     9    9   10 ar
    10    7   10 ar
    11   11    1 1
    12   12    8 1
    13   13    9 1
    14   14   10 1
    15   15    6 1
    16   16    6 1
    17   17    6 1
@<TRIPOS>SUBSTRUCTURE
     1 THG3     1 RESIDUE           4 A     THG3     0 ROOT
