@<TRIPOS>MOLECULE
OLT.pdb
20 19 1 0 0
SMALL
AMBER ff99SB


@<TRIPOS>ATOM
      1 N          -0.2373   -1.8745   -0.6601 N.4       1 OLT1       -0.8246
      2 CA         -0.3818   -0.8575    0.3897 C.3       1 OLT1       -0.1005
      3 C          -1.4824    0.1008    0.0120 C.2       1 OLT1        0.9346
      4 O          -1.8360    0.1904   -1.1396 O.co2     1 OLT1       -0.7993
      5 CB          0.9332   -0.0893    0.5397 C.3       1 OLT1        0.1291
      6 OG1         1.1993    0.6401   -0.6599 O.3       1 OLT1       -0.4586
      7 CG2         2.0737   -1.0760    0.7999 C.3       1 OLT1       -0.1091
      8 CD1         1.9354    1.8045   -0.2803 C.3       1 OLT1        0.1067
      9 OXT        -2.0692    0.8541    0.9558 O.co2     1 OLT1       -0.7243
     10 H3         -1.1495   -2.2821   -0.7962 H         1 OLT1        0.4838
     11 H2         -0.0084   -1.3825   -1.5111 H         1 OLT1        0.4488
     12 HA         -0.6296   -1.3419    1.3337 H         1 OLT1        0.0927
     13 HB          0.8555    0.6048    1.3775 H         1 OLT1        0.1177
     14 HG21        2.1513   -1.7701   -0.0368 H         1 OLT1        0.0217
     15 HG22        3.0100   -0.5293    0.9072 H         1 OLT1        0.0627
     16 HG23        1.8706   -1.6328    1.7156 H         1 OLT1        0.0487
     17 HD11        2.8650    1.5050    0.2040 H         1 OLT1        0.0327
     18 HD12        2.1631    2.3957   -1.1675 H         1 OLT1        0.0517
     19 HD13        1.3412    2.4008    0.4110 H         1 OLT1        0.0717
     20 H1          0.4575   -2.5684   -0.4238 H         1 OLT1        0.4148
@<TRIPOS>BOND
     1    1    2 1
     2    1   10 1
     3    1   11 1
     4    2    3 1
     5    2    5 1
     6    2   12 1
     7    3    4 2
     8    3    9 1
     9    5    6 1
    10    5    7 1
    11    5   13 1
    12    6    8 1
    13    7   14 1
    14    7   15 1
    15    7   16 1
    16    8   17 1
    17    8   18 1
    18    8   19 1
    19   20    1 1
@<TRIPOS>SUBSTRUCTURE
     1 OLT1        2 RESIDUE           4 A     OLT     0 ROOT
