@<TRIPOS>MOLECULE
CPG4.pdb
20 20 1 0 0
SMALL
AMBER ff99SB


@<TRIPOS>ATOM
      1 N           2.3530    4.1250    1.3590 N.4       1 CPG4   -0.8346
      2 CA          2.0910    3.7120   -0.0200 C.3       1 CPG4   -0.0222
      3 C           1.4560    4.8360   -0.6970 C.2       1 CPG4    0.9386
      4 O           0.5000    5.4300   -0.2130 O.co2     1 CPG4   -0.8103
      5 CB          1.3430    2.4120   -0.0130 C.ar      1 CPG4   -0.1243
      6 CG1        -0.0720    2.3410    0.0260 C.ar      1 CPG4   -0.0860
      7 CG2         2.0630    1.1890   -0.0100 C.ar      1 CPG4   -0.1060
      8 CD1        -0.7400    1.1030    0.0120 C.ar      1 CPG4   -0.1290
      9 CD2         1.3970   -0.0510   -0.0030 C.ar      1 CPG4   -0.1330
     10 CE         -0.0060   -0.0950   -0.0010 C.ar      1 CPG4    0.0344
     11 OXT         1.9040    5.2740   -1.7430 O.co2     1 CPG4   -0.6933
     12 CLE        -0.8470   -1.6520   -0.0160 Cl        1 CPG4   -0.0834
     13 HA          2.9970    3.5220   -0.5950 H         1 CPG4    0.0957
     14 HG1        -0.6480    3.2530    0.0680 H         1 CPG4    0.1780
     15 HG2         3.1430    1.2100   -0.0130 H         1 CPG4    0.1350
     16 HD1        -1.8200    1.0730    0.0110 H         1 CPG4    0.1560
     17 HD2         1.9660   -0.9690    0.0010 H         1 CPG4    0.1510
     18 H1          2.4630    3.3060    1.9400 H         1 CPG4    0.4198
     19 H2          3.1980    4.6760    1.3910 H         1 CPG4    0.4298
     20 H3          1.5780    4.6760    1.6990 H         1 CPG4    0.4818
@<TRIPOS>BOND
     1    3    2 1
     2    3    4 2
     3    3   11 1
     4    2    5 1
     5    2   13 1
     6    2    1 1
     7    5    6 ar
     8    5    7 ar
     9    8   10 ar
    10    8    6 ar
    11    8   16 1
    12    9   10 ar
    13    9    7 ar
    14    9   17 1
    15   10   12 1
    16    6   14 1
    17    7   15 1
    18   18    1 1
    19   19    1 1
    20   20    1 1
@<TRIPOS>SUBSTRUCTURE
     1 CPG4     2 RESIDUE           4 A     CPG4     0 ROOT
