@<TRIPOS>MOLECULE
NAO1.pdb
30 31 1 0 0
SMALL
AMBER ff99SB


@<TRIPOS>ATOM
      1 N          14.0250   32.0590  -72.0160 N.4       1 LIG   -0.8326
      2 CA         13.6090   33.1970  -71.1870 C.3       1 LIG   -0.0715
      3 C          12.5980   34.0800  -71.9210 C.2       1 LIG    0.9376
      4 O          11.3950   34.0340  -71.6430 O.co2     1 LIG   -0.7193
      5 CB         14.8270   34.0310  -70.7630 C.3       1 LIG   -0.0511
      6 CG         15.9210   33.2270  -70.1020 C.ar      1 LIG   -0.1093
      7 CD1        15.8750   32.9570  -68.7340 C.ar      1 LIG    0.0090
      8 CD2        16.9970   32.7410  -70.8480 C.ar      1 LIG   -0.1420
      9 CE1        16.8800   32.2150  -68.1210 C.ar      1 LIG   -0.0680
     10 CE2        18.0080   31.9960  -70.2460 C.ar      1 LIG   -0.1450
     11 CZ         17.9500   31.7330  -68.8810 C.ar      1 LIG   -0.0970
     12 CJ1        14.7060   33.1870  -66.5950 C.ar      1 LIG    0.1431
     13 CJ2        15.7050   32.4240  -65.9690 C.ar      1 LIG   -0.1360
     14 OXT        12.9880   34.8460  -72.8000 O.co2     1 LIG   -0.7993
     15 OJ1        13.6120   33.6990  -65.8300 O.3       1 LIG   -0.4941
     16 CH1        14.7820   33.4470  -67.9740 C.ar      1 LIG   -0.2330
     17 CH2        16.7800   31.9210  -66.7210 C.ar      1 LIG   -0.0920
     18 HA         13.1320   32.8080  -70.2870 H         1 LIG    0.0927
     19 HB1        14.4920   34.7950  -70.0620 H         1 LIG    0.1167
     20 HB2        15.2380   34.5220  -71.6450 H         1 LIG    0.0667
     21 HD2        17.0460   32.9460  -71.9070 H         1 LIG    0.1270
     22 HE2        18.8330   31.6240  -70.8360 H         1 LIG    0.1370
     23 HZ         18.7320   31.1570  -68.4090 H         1 LIG    0.1370
     24 HJ2        15.6470   32.2240  -64.9090 H         1 LIG    0.1570
     25 HH1        14.0060   34.0220  -68.4570 H         1 LIG    0.1580
     26 HH2        17.5330   31.3110  -66.2430 H         1 LIG    0.1390
     27 H1         13.2120   31.5230  -72.2850 H         1 LIG    0.4278
     28 H2         14.6560   31.4720  -71.4890 H         1 LIG    0.4258
     29 H3         14.4930   32.3990  -72.8440 H         1 LIG    0.4818
     30 HJ1        13.4180   34.5970  -66.1090 H         1 LIG    0.4310
@<TRIPOS>BOND
     1    3    2 1
     2    3    4 2
     3    3   14 1
     4    2    5 1
     5    2   18 1
     6    2    1 1
     7    5    6 1
     8    5   19 1
     9    5   20 1
    10    7    9 ar
    11    7   16 ar
    12    7    6 ar
    13    8   10 ar
    14    8    6 ar
    15    8   21 1
    16    9   17 ar
    17    9   11 ar
    18   10   11 ar
    19   10   22 1
    20   16   12 ar
    21   16   25 1
    22   17   13 ar
    23   17   26 1
    24   12   13 ar
    25   12   15 1
    26   13   24 1
    27   11   23 1
    28   30   15 1
    29   27    1 1
    30   28    1 1
    31   29    1 1
@<TRIPOS>SUBSTRUCTURE
     1 LIG     2 RESIDUE           4 A     LIG     0 ROOT
