@<TRIPOS>MOLECULE
0A1 .pdb
27 27 1 0 0
SMALL
AMBER ff99SB


@<TRIPOS>ATOM
      1 CA          0.2340   -0.5350   -0.0240 C.3       1 0A1    -0.0685
      2 C          -0.1150   -0.9320    1.3210 C.2       1 0A1     0.9356
      3 CB          0.2160   -1.7160   -1.0390 C.3       1 0A1    -0.0441
      4 O           0.5110   -1.8030    1.9100 O.co2     1 0A1    -0.8043
      5 OXT        -0.9840   -0.3370    1.9320 O.co2     1 0A1    -0.7103
      6 N           1.5580    0.0680    0.1270 N.4       1 0A1    -0.8356
      7 CG          0.4400   -1.2580   -2.4380 C.ar      1 0A1    -0.1523
      8 CD1         1.7500   -1.0390   -2.9260 C.ar      1 0A1    -0.1180
      9 CD2        -0.6540   -1.0050   -3.2970 C.ar      1 0A1    -0.0920
     10 CE2        -0.4460   -0.5020   -4.5940 C.ar      1 0A1    -0.1500
     11 CZ          0.8580   -0.2510   -5.0680 C.ar      1 0A1     0.1291
     12 CE1         1.9580   -0.5380   -4.2250 C.ar      1 0A1    -0.2030
     13 OH          0.9460    0.2390   -6.2430 O.3       1 0A1    -0.3229
     14 CH          2.0080    0.5590   -6.9880 C.3       1 0A1     0.1117
     15 HA         -0.4663    0.2299   -0.3595 H         1 0A1     0.0887
     16 HB1        -0.7529   -2.2122   -0.9830 H         1 0A1     0.1137
     17 HB2         0.9959   -2.4281   -0.7692 H         1 0A1     0.0697
     18 HD1         2.5989   -1.2584   -2.2955 H         1 0A1     0.1310
     19 HD2        -1.6594   -1.1999   -2.9540 H         1 0A1     0.1470
     20 HE2        -1.2940   -0.3060   -5.2335 H         1 0A1     0.1570
     21 HE1         2.9640   -0.3715   -4.5808 H         1 0A1     0.1420
     22 H1          1.8907    0.3809   -0.7738 H         1 0A1     0.4258
     23 H2          2.1985   -0.6165    0.5030 H         1 0A1     0.4828
     24 H3          1.4994    0.8557    0.7564 H         1 0A1     0.4248
     25 HH1         1.6741    0.9349   -7.9551 H         1 0A1     0.0727
     26 HH2         2.6272   -0.3257   -7.1364 H         1 0A1     0.0387
     27 HH3         2.5895    1.3285   -6.4802 H         1 0A1     0.0317
@<TRIPOS>BOND
     1    2    1 1
     2    2    4 2
     3    2    5 1
     4    1    3 1
     5    1    6 1
     6    3    7 1
     7    8   12 ar
     8    8    7 ar
     9    9   10 ar
    10    9    7 ar
    11   12   11 ar
    12   10   11 ar
    13   14   13 1
    14   11   13 1
    15   15    1 1
    16   16    3 1
    17   17    3 1
    18   18    8 1
    19   19    9 1
    20   20   10 1
    21   21   12 1
    22   22    6 1
    23   23    6 1
    24   24    6 1
    25   25   14 1
    26   26   14 1
    27   27   14 1
@<TRIPOS>SUBSTRUCTURE
     1 0A1      1 RESIDUE           4 A     0A1      0 ROOT
