@<TRIPOS>MOLECULE
APD.pdb
26 26 1 0 0
SMALL
GASTEIGER


@<TRIPOS>ATOM
      1 N          22.1880  -19.5900   47.7520 N.4       1 APD    0.3873
      2 CA         21.5330  -19.2300   49.0070 C.3       1 APD    0.0245
      3 C          20.1970  -19.9190   49.1360 C.2       1 APD    0.3423
      4 O          19.7650  -20.6780   48.2650 O.co2     1 APD   -0.2482
      5 CB         21.2900  -17.6940   49.0850 C.3       1 APD   -0.0305
      6 CG         22.5350  -16.7980   49.0580 C.ar      1 APD   -0.0476
      7 CD2        23.2570  -16.5470   50.2290 C.ar      1 APD   -0.0509
      8 CD1        22.9580  -16.2340   47.8510 C.ar      1 APD   -0.0557
      9 CE2        24.3930  -15.7440   50.1890 C.ar      1 APD   -0.0174
     10 CE1        24.0940  -15.4320   47.8130 C.ar      1 APD   -0.0496
     11 CZ         24.8110  -15.1870   48.9830 C.ar      1 APD   -0.0511
     12 OXT        19.5570  -19.7380   50.1450 O.co2     1 APD   -0.2482
     13 CH         24.5510  -14.8260   46.4730 C.3       1 APD   -0.0397
     14 HN1        23.0780  -19.1170   47.6880 H         1 APD   -0.0889
     15 HN2        22.3350  -20.5890   47.7240 H         1 APD   -0.0889
     16 HN3        21.6040  -19.3140   46.9760 H         1 APD   -0.0889
     17 HA         22.1680  -19.5580   49.8510 H         1 APD    0.0201
     18 HB1        20.7270  -17.4530   50.0080 H         1 APD    0.0302
     19 HB2        20.5970  -17.3900   48.2730 H         1 APD    0.0302
     20 HD2        22.9440  -16.9800   51.1690 H         1 APD    0.0626
     21 HD1        22.4120  -16.4290   46.9380 H         1 APD    0.0623
     22 HZ         25.7010  -14.5590   48.9530 H         1 APD    0.0626
     23 HH1        24.4560  -13.7410   46.5140 H         1 APD    0.0278
     24 HH2        23.9310  -15.2160   45.6670 H         1 APD    0.0278
     25 HH3        25.5920  -15.0920   46.2910 H         1 APD    0.0278
     26 HE2        24.9508  -15.5527   51.0938 H         1 APD    0.0000
@<TRIPOS>BOND
     1    1    2 1
     2    1   14 1
     3    1   15 1
     4    1   16 1
     5    2    3 1
     6    2    5 1
     7    2   17 1
     8    3    4 2
     9    3   12 1
    10    5    6 1
    11    5   18 1
    12    5   19 1
    13    6    7 ar
    14    6    8 ar
    15    7    9 ar
    16    7   20 1
    17    8   10 ar
    18    8   21 1
    19    9   11 ar
    20   10   11 ar
    21   10   13 1
    22   11   22 1
    23   13   23 1
    24   13   24 1
    25   13   25 1
    26   26    9 1
@<TRIPOS>SUBSTRUCTURE
     1 APD     2 RESIDUE           4 A     APD     0 ROOT
