@<TRIPOS>MOLECULE
TY2.pdb
26 26 1 0 0
SMALL
AMBER ff99SB


@<TRIPOS>ATOM
      1 N          -0.8130   -2.1990    1.4230 N.4       1 TY2   -0.8366
      2 CA          0.6120   -2.0820    1.1270 C.3       1 TY2   -0.0685
      3 C           1.4480   -2.8100    2.2010 C.2       1 TY2    0.9366
      4 O           0.9270   -3.3750    3.1280 O.co2     1 TY2   -0.8023
      5 CB          1.0520   -0.5890    1.0960 C.3       1 TY2   -0.0501
      6 CG          0.3900    0.3020    0.0380 C.ar      1 TY2   -0.0893
      7 CD2         0.8070    0.2540   -1.2960 C.ar      1 TY2   -0.1480
      8 CD1        -0.6470    1.1640    0.4060 C.ar      1 TY2   -0.2050
      9 CE2         0.1880    1.0570   -2.2500 C.ar      1 TY2   -0.1000
     10 CE1        -1.2640    1.9660   -0.5490 C.ar      1 TY2    0.1016
     11 CZ         -0.8460    1.9120   -1.8770 C.ar      1 TY2    0.0421
     12 OZ         -1.4520    2.6960   -2.8170 O.3       1 TY2   -0.5101
     13 OXT         2.8740   -2.8130    2.0940 O.co2     1 TY2   -0.7103
     14 NE1         -2.3590    2.8600   -0.1460 N.pl3     1 TY2   -0.8112
     15 HA          0.8160   -2.5590    0.1500 H         1 TY2    0.0897
     16 HB1         2.1480   -0.5270    0.9450 H         1 TY2    0.1167
     17 HB2         0.9050   -0.1420    2.1010 H         1 TY2    0.0707
     18 HD2         1.6050   -0.4110   -1.5960 H         1 TY2    0.1480
     19 HD1        -0.9840    1.2030    1.4330 H         1 TY2    0.1330
     20 HE2         0.5040    1.0170   -3.2820 H         1 TY2    0.1550
     21 HZ         -2.1360    3.2130   -2.3860 H         1 TY2    0.4170
     22 H1         -1.1630   -1.2550    1.5060 H         1 TY2    0.4288
     23 H2         -1.2530   -2.6100    0.6120 H         1 TY2    0.4248
     24 H3         -1.1760   -2.7330    2.2890 H         1 TY2    0.4828
     25 HE11       -2.6568    2.8907    0.8186 H         1 TY2    0.3908
     26 HE12       -2.8136    3.4436   -0.8337 H         1 TY2    0.3958
@<TRIPOS>BOND
     1    3    2 1
     2    3    4 2
     3    3   13 1
     4    2    5 1
     5    2   15 1
     6    2    1 1
     7    5    6 1
     8    5   16 1
     9    5   17 1
    10    7    9 ar
    11    7    6 ar
    12    7   18 1
    13    8   10 ar
    14    8    6 ar
    15    8   19 1
    16    9   11 ar
    17    9   20 1
    18   10   11 ar
    19   10   14 1
    20   11   12 1
    21   22    1 1
    22   23    1 1
    23   24    1 1
    24   21   12 1
    25   25   14 1
    26   26   14 1
@<TRIPOS>SUBSTRUCTURE
     1 TY2     2 RESIDUE           4 A     TY2     0 ROOT
