@<TRIPOS>MOLECULE
OMT.pdb
22 21 1 0 0
SMALL
AMBER ff99SB


@<TRIPOS>ATOM
      1 CB         -0.3340    0.5560    0.9020 C.3       1 OMT   -0.0584
      2 CG         -1.8800    0.6180    0.8670 C.3       1 OMT   -0.3426
      3 CE         -4.3850    1.4980    2.2290 C.3       1 OMT   -0.3773
      4 OE1        -1.9960    2.9640    2.4100 O.2       1 OMT   -0.6368
      5 OE2        -2.1170    0.6780    3.6670 O.2       1 OMT   -0.7128
      6 SD         -2.5600    1.4640    2.3420 S.o2      1 OMT    1.3420
      7 HB1        -0.0300   -0.0070    1.7840 H         1 OMT    0.0587
      8 HB2         0.0570    1.5700    0.9800 H         1 OMT    0.1367
      9 HG1        -2.2730   -0.3980    0.8310 H         1 OMT    0.1177
     10 HG2        -2.1950    1.1540   -0.0280 H         1 OMT    0.1287
     11 HE1        -4.7940    2.0010    3.1050 H         1 OMT    0.1337
     12 HE2        -4.6830    2.0360    1.3290 H         1 OMT    0.1227
     13 HE3        -4.7650    0.4770    2.1850 H         1 OMT    0.1247
     14 N          -0.2280   -1.4760   -0.3100 N.4       1 OMT   -0.8226
     15 CA          0.2600   -0.1000   -0.3100 C.3       1 OMT   -0.0845
     16 C           1.7690   -0.0600   -0.3100 C.2       1 OMT    0.9396
     17 O           2.4530   -1.0950   -0.3100 O.co2     1 OMT   -0.7943
     18 OXT         2.3370    1.0300   -0.3100 O.co2     1 OMT   -0.7173
     19 HA         -0.1080    0.4060   -1.2030 H         1 OMT    0.0857
     20 H1          0.1450   -1.9660   -1.1110 H         1 OMT    0.4798
     21 H2          0.0710   -1.9390    0.5360 H         1 OMT    0.4338
     22 H3         -1.2370   -1.4750   -0.3550 H         1 OMT    0.4428
@<TRIPOS>BOND
     1   16   15 1
     2   16   17 2
     3   16   18 1
     4   15    1 1
     5   15   19 1
     6   15   14 1
     7    1    2 1
     8    1    7 1
     9    1    8 1
    10    3   11 1
    11    3   12 1
    12    3   13 1
    13    3    6 1
    14    2    9 1
    15    2   10 1
    16    2    6 1
    17   20   14 1
    18   21   14 1
    19   22   14 1
    20    4    6 2
    21    5    6 2
@<TRIPOS>SUBSTRUCTURE
     1 OMT    15 RESIDUE           4 A     OMT     0 ROOT
