@<TRIPOS>MOLECULE
PYZ1.mol2
20 20 1 0 0
SMALL
AMBER ff99SB


@<TRIPOS>ATOM
      1 N          -3.0837    2.8740    1.6864 N.4       1 PYZ1   -0.8166
      2 CA         -2.1955    1.7424    1.4583 C.3       1 PYZ1   -0.0945
      3 O          -0.2462    2.8347    2.0694 O.co2     1 PYZ1   -0.7883
      4 CB         -1.7947    1.6166   -0.0374 C.3       1 PYZ1    0.0453
      5 C          -1.1243    2.0476    2.3699 C.2       1 PYZ1    0.9426
      6 OXT        -1.2130    1.7053    3.5366 O.co2     1 PYZ1   -0.7163
      7 NG         -2.9419    1.3548   -0.8525 N.ar      1 PYZ1   -0.1024
      8 CD2        -3.4540    0.1387   -1.1315 C.ar      1 PYZ1   -0.1173
      9 CE2        -4.5747    0.3333   -1.9204 C.ar      1 PYZ1   -0.3023
     10 CE1        -4.6758    1.7049   -2.0804 C.ar      1 PYZ1    0.0562
     11 ND1        -3.6621    2.2821   -1.4160 N.ar      1 PYZ1   -0.1620
     12 HA         -2.6905    0.8252    1.7775 H         1 PYZ1    0.0997
     13 HB1        -1.3311    2.5481   -0.3622 H         1 PYZ1    0.0737
     14 HB2        -1.0801    0.8013   -0.1504 H         1 PYZ1    0.1297
     15 HD2        -3.0620   -0.8117   -0.8005 H         1 PYZ1    0.1860
     16 HE2        -5.2305   -0.4235   -2.3249 H         1 PYZ1    0.1720
     17 HE1        -5.4391    2.2217   -2.6431 H         1 PYZ1    0.0431
     18 H1         -3.8987    2.7872    1.0962 H         1 PYZ1    0.4328
     19 H2         -3.3696    2.8873    2.6550 H         1 PYZ1    0.4798
     20 H3         -2.5987    3.7323    1.4667 H         1 PYZ1    0.4388
@<TRIPOS>BOND
     1    3    5 2
     2    5    2 1
     3    5    6 1
     4    2    1 1
     5    2    4 1
     6    4    7 1
     7    7    8 ar
     8    7   11 ar
     9    8    9 ar
    10    9   10 ar
    11   10   11 ar
    12   12    2 1
    13   13    4 1
    14   14    4 1
    15   15    8 1
    16   16    9 1
    17   17   10 1
    18   18    1 1
    19   19    1 1
    20   20    1 1
@<TRIPOS>SUBSTRUCTURE
     1 PYZ1     2 RESIDUE           4 A     PYZ1     0 ROOT
