@<TRIPOS>MOLECULE
MEN.pdb
20 19 1 0 0
SMALL
AMBER ff99SB


@<TRIPOS>ATOM
      1 N           1.3253    0.8692    0.2247 N.4       1 MEN1       -0.8326
      2 CA          1.1428   -0.2862    1.1148 C.3       1 MEN1       -0.0685
      3 C           2.2582   -1.2739    0.8894 C.2       1 MEN1        0.9376
      4 O           2.7754   -1.3638   -0.1971 O.co2     1 MEN1       -0.7933
      5 CB         -0.1987   -0.9537    0.8149 C.3       1 MEN1       -0.1614
      6 CG         -1.3132    0.0348    1.0383 C.2       1 MEN1        0.6521
      7 OD1        -1.0598    1.1619    1.4034 O.2       1 MEN1       -0.6801
      8 ND         -2.5939   -0.3354    0.8360 N.am      1 MEN1       -0.5479
      9 CE         -3.6777    0.6257    1.0540 C.3       1 MEN1        0.0713
     10 OXT         2.6762   -2.0539    1.8989 O.co2     1 MEN1       -0.7193
     11 H3          0.5089    1.4497    0.3321 H         1 MEN1        0.4568
     12 H2          1.3045    0.5123   -0.7183 H         1 MEN1        0.4748
     13 HA          1.1581    0.0488    2.1516 H         1 MEN1        0.0937
     14 HB1        -0.3332   -1.8104    1.4755 H         1 MEN1        0.1207
     15 HB2        -0.2140   -1.2887   -0.2220 H         1 MEN1        0.0907
     16 HD         -2.7970   -1.2376    0.5440 H         1 MEN1        0.3225
     17 HE1        -4.6335    0.1488    0.8402 H         1 MEN1        0.0377
     18 HE2        -3.6624    0.9598    2.0904 H         1 MEN1        0.0367
     19 HE3        -3.5422    1.4811    0.3938 H         1 MEN1        0.0797
     20 H1          2.1790    1.3716    0.4239 H         1 MEN1        0.4298
@<TRIPOS>BOND
     1    3    2 1
     2    3    4 2
     3    3   10 1
     4    2    1 1
     5    2    5 1
     6    2   13 1
     7    5    6 1
     8    5   14 1
     9    5   15 1
    10    9    8 1
    11    9   18 1
    12    9   17 1
    13    9   19 1
    14    6    7 2
    15    6    8 am
    16   11    1 1
    17   20    1 1
    18   12    1 1
    19   16    8 1
@<TRIPOS>SUBSTRUCTURE
     1 MEN1        2 RESIDUE           4 A     MEN     0 ROOT
