@<TRIPOS>MOLECULE
GHG.pdb
21 20 1 0 0
SMALL
AMBER ff99SB


@<TRIPOS>ATOM
      1 N          -1.1366    2.0821    1.4912 N.4       1 GHG1       -0.8346
      2 CA         -0.1551    1.1217    0.9699 C.3       1 GHG1       -0.0815
      3 C           1.2240    1.7258    1.0392 C.2       1 GHG1        0.9416
      4 O           1.3548    2.9243    1.1252 O.co2     1 GHG1       -0.7923
      5 CB         -0.4914    0.7873   -0.4847 C.3       1 GHG1       -0.1264
      6 CG         -1.8382    0.0612   -0.5425 C.3       1 GHG1        0.0661
      7 OG1        -1.7267   -1.2000    0.1193 O.3       1 GHG1       -0.5978
      8 CD         -2.2281   -0.1606   -1.9812 C.2       1 GHG1        0.6291
      9 NE2        -3.0007   -1.2139   -2.3151 N.am      1 GHG1       -0.6520
     10 OE1        -1.8473    0.6073   -2.8384 O.2       1 GHG1       -0.6261
     11 OXT         2.3064    0.9325    1.0058 O.co2     1 GHG1       -0.7143
     12 HA         -0.1834    0.2116    1.5687 H         1 GHG1        0.0997
     13 HB1        -0.5510    1.7083   -1.0655 H         1 GHG1        0.0867
     14 HB2         0.2852    0.1454   -0.8996 H         1 GHG1        0.1247
     15 HG         -2.5982    0.6653   -0.0483 H         1 GHG1        0.0747
     16 HG1        -1.0671   -1.7911   -0.2673 H         1 GHG1        0.4230
     17 HE21       -3.3065   -1.8283   -1.6278 H         1 GHG1        0.3185
     18 HE22       -3.2514   -1.3584   -3.2408 H         1 GHG1        0.3215
     19 H1         -2.0536    1.6677    1.4030 H         1 GHG1        0.4308
     20 H2         -1.1297    2.9357    0.9529 H         1 GHG1        0.4888
     21 H3         -0.9737    2.2700    2.4689 H         1 GHG1        0.4198
@<TRIPOS>BOND
     1    3    2 1
     2    3    4 2
     3    3   11 2
     4    2    5 1
     5    2   12 1
     6    2    1 1
     7    5    6 1
     8    5   13 1
     9    5   14 1
    10    8    6 1
    11    8    9 am
    12    8   10 2
    13    6   15 1
    14    6    7 1
    15   19    1 1
    16   20    1 1
    17   21    1 1
    18   17    9 1
    19   18    9 1
    20   16    7 1
@<TRIPOS>SUBSTRUCTURE
     1 GHG1        2 RESIDUE           4 A     GHG     0 ROOT
