@<TRIPOS>MOLECULE
PF5.pdb
23 23 1 0 0
SMALL
AMBER ff99SB


@<TRIPOS>ATOM
      1 N          22.1880  -19.5900   47.7520 N.4       1 PF5   -0.8346
      2 CA         21.5330  -19.2300   49.0070 C.3       1 PF5   -0.0815
      3 C          20.1970  -19.9190   49.1360 C.2       1 PF5    0.9426
      4 O          19.7650  -20.6780   48.2650 O.co2     1 PF5   -0.7913
      5 CB         21.2900  -17.6940   49.0850 C.3       1 PF5   -0.0541
      6 CG         22.5350  -16.7980   49.0580 C.ar      1 PF5   -0.1293
      7 CD1        23.2500  -16.5680   50.2370 C.ar      1 PF5    0.1409
      8 CD2        22.9570  -16.2010   47.8660 C.ar      1 PF5    0.0899
      9 CE1        24.3720  -15.7450   50.2260 C.ar      1 PF5    0.0799
     10 CE2        24.0800  -15.3790   47.8570 C.ar      1 PF5    0.0799
     11 CZ         24.7860  -15.1510   49.0350 C.ar      1 PF5    0.1059
     12 OXT        19.5570  -19.7380   50.1450 O.co2     1 PF5   -0.7033
     13 FD2        22.2760  -16.4080   46.7190 F         1 PF5   -0.1349
     14 FE2        24.4840  -14.8010   46.7060 F         1 PF5   -0.0979
     15 FZ         25.8750  -14.3530   49.0250 F         1 PF5   -0.0909
     16 FE1        25.0580  -15.5230   51.3670 F         1 PF5   -0.0919
     17 FD1        22.9030  -17.1610   51.3990 F         1 PF5   -0.0909
     18 HN1        23.0780  -19.1170   47.6880 H         1 PF5    0.4168
     19 HN2        22.3350  -20.5890   47.7240 H         1 PF5    0.4898
     20 HN3        21.6040  -19.3140   46.9760 H         1 PF5    0.4358
     21 HA         22.1680  -19.5580   49.8510 H         1 PF5    0.0947
     22 HB1        20.7270  -17.4530   50.0080 H         1 PF5    0.1457
     23 HB2        20.5970  -17.3900   48.2730 H         1 PF5    0.0787
@<TRIPOS>BOND
     1    3    2 1
     2    3    4 2
     3    3   12 1
     4    2    5 1
     5    2   21 1
     6    2    1 1
     7    5    6 1
     8    5   22 1
     9    5   23 1
    10    7    9 ar
    11    7    6 ar
    12    7   17 1
    13    8   10 ar
    14    8    6 ar
    15    8   13 1
    16    9   11 ar
    17    9   16 1
    18   10   11 ar
    19   10   14 1
    20   11   15 1
    21   18    1 1
    22   19    1 1
    23   20    1 1
@<TRIPOS>SUBSTRUCTURE
     1 PF5     2 RESIDUE           4 A     PF5     0 ROOT
