@<TRIPOS>MOLECULE
THA3.pdb
20 20 1 0 0
SMALL
AMBER ff99SB


@<TRIPOS>ATOM
      1 N          22.1880  -19.5900   47.7520 N.4       1 THA3   -0.8356
      2 CA         21.5330  -19.2300   49.0070 C.3       1 THA3   -0.0665
      3 C          20.1970  -19.9190   49.1360 C.2       1 THA3    0.9356
      4 O          19.7650  -20.6780   48.2650 O.co2     1 THA3   -0.8043
      5 CG         22.4780  -16.8130   49.0730 C.ar      1 THA3   -0.1453
      6 CD2        22.9570  -16.1870   47.9010 C.ar      1 THA3   -0.1870
      7 CE2        24.0930  -15.3870   48.0550 C.ar      1 THA3   -0.1721
      8 CD1        23.2380  -16.5380   50.2220 C.ar      1 THA3   -0.1691
      9 CB         21.2930  -17.6940   49.0870 C.3       1 THA3   -0.0271
     10 SE1        24.5410  -15.4660   49.7480 S.2       1 THA3    0.0642
     11 OXT        19.5570  -19.7380   50.1450 O.co2     1 THA3   -0.7113
     12 HN1        23.0780  -19.1170   47.6880 H         1 THA3    0.4278
     13 HN2        22.3350  -20.5890   47.7240 H         1 THA3    0.4238
     14 HN3        21.6040  -19.3140   46.9760 H         1 THA3    0.4828
     15 HA         22.1680  -19.5580   49.8510 H         1 THA3    0.0887
     16 HB1        20.7270  -17.4530   50.0080 H         1 THA3    0.1137
     17 HB2        20.5970  -17.3900   48.2730 H         1 THA3    0.0717
     18 HD2        22.4747  -16.3185   46.9436 H         1 THA3    0.1510
     19 HE2        24.5973  -14.8282   47.2805 H         1 THA3    0.1760
     20 HD1        23.0531  -16.9178   51.2160 H         1 THA3    0.1830
@<TRIPOS>BOND
     1    3    2 1
     2    3    4 2
     3    3   11 1
     4    2    9 1
     5    2   15 1
     6    2    1 1
     7    9    5 1
     8    9   16 1
     9    9   17 1
    10    8    5 ar
    11    8   10 ar
    12    6    7 ar
    13    6    5 ar
    14    7   10 ar
    15   12    1 1
    16   13    1 1
    17   14    1 1
    18   18    6 1
    19   19    7 1
    20   20    8 1
@<TRIPOS>SUBSTRUCTURE
     1 THA3     2 RESIDUE           4 A     THA3     0 ROOT
