@<TRIPOS>MOLECULE
NVA.pdb
19 18 1 0 0
SMALL
AMBER ff99SB


@<TRIPOS>ATOM
      1 N          22.5490  -18.0130   50.5641 N.4       1 NVA1       -0.8376
      2 CA         21.4131  -18.6829   49.9359 C.3       1 NVA1       -0.0715
      3 C          21.8334  -19.9933   49.3175 C.2       1 NVA1        0.9356
      4 O          22.9978  -20.3972   49.3675 O.co2     1 NVA1       -0.8043
      5 CB         20.7991  -17.7973   48.8121 C.3       1 NVA1       -0.0974
      6 CG         20.3127  -16.3958   49.2252 C.3       1 NVA1       -0.0874
      7 CD         19.7261  -15.6726   47.9987 C.3       1 NVA1       -0.0941
      8 OXT        20.9850  -20.6730   48.7896 O.co2     1 NVA1       -0.7093
      9 HN1        22.2438  -17.1397   50.9694 H         1 NVA1        0.4168
     10 HN2        22.9301  -18.6052   51.2883 H         1 NVA1        0.4878
     11 HN3        23.2590  -17.8314   49.8697 H         1 NVA1        0.4238
     12 HA         20.6516  -18.8998   50.7081 H         1 NVA1        0.0887
     13 HB1        19.9408  -18.3235   48.3509 H         1 NVA1        0.1177
     14 HB2        21.5265  -17.7061   47.9768 H         1 NVA1        0.0547
     15 HG1        21.1515  -15.8208   49.6197 H         1 NVA1        0.0077
     16 HG2        19.5446  -16.4896   49.9933 H         1 NVA1        0.0457
     17 HD1        20.4813  -15.6179   47.2142 H         1 NVA1        0.0367
     18 HD2        19.4229  -14.6640   48.2825 H         1 NVA1        0.0367
     19 HD3        18.8606  -16.2230   47.6324 H         1 NVA1        0.0487
@<TRIPOS>BOND
     1    3    2 1
     2    3    4 2
     3    3    8 2
     4    2    5 1
     5    2   12 1
     6    2    1 1
     7    5    6 1
     8    5   13 1
     9    5   14 1
    10    7    6 1
    11    7   17 1
    12    7   18 1
    13    7   19 1
    14    6   15 1
    15    6   16 1
    16    9    1 1
    17   10    1 1
    18   11    1 1
@<TRIPOS>SUBSTRUCTURE
     1 NVA1        2 RESIDUE           4 A     NVA     0 ROOT
