@<TRIPOS>MOLECULE
TBP4.pdb
35 35 1 0 0
SMALL
AMBER ff99SB


@<TRIPOS>ATOM
      1 N           1.5970    0.0940    0.0510 N.4       1 TBP4   -0.8356
      2 CA          0.2610   -0.4830   -0.0740 C.3       1 TBP4   -0.0675
      3 C          -0.1280   -0.8030    1.2800 C.2       1 TBP4    0.9356
      4 O           0.5080   -1.5980    1.9580 O.co2     1 TBP4   -0.8033
      5 CB          0.2360   -1.7150   -1.0240 C.3       1 TBP4   -0.0491
      6 CG          0.4700   -1.3290   -2.4420 C.ar      1 TBP4   -0.1183
      7 CD1        -0.5990   -0.8630   -3.2430 C.ar      1 TBP4   -0.1210
      8 CD2         1.7590   -1.3980   -3.0190 C.ar      1 TBP4   -0.1570
      9 CE1        -0.3860   -0.4740   -4.5790 C.ar      1 TBP4   -0.1230
     10 CE2         1.9730   -1.0120   -4.3560 C.ar      1 TBP4   -0.1250
     11 CZ          0.9020   -0.5480   -5.1550 C.ar      1 TBP4   -0.0583
     12 CH          1.1170   -0.1440   -6.5670 C.3       1 TBP4   -0.0127
     13 OXT        -1.0610   -0.2250    1.8060 O.co2     1 TBP4   -0.7113
     14 CJ1         1.1550    1.3910   -6.6810 C.3       1 TBP4   -0.0851
     15 CJ2         2.4550   -0.7230   -7.0640 C.3       1 TBP4   -0.0881
     16 CJ3        -0.0310   -0.6920   -7.4340 C.3       1 TBP4   -0.0861
     17 HA         -0.4160    0.2770   -0.4650 H         1 TBP4    0.0887
     18 HB1        -0.7380   -2.1990   -0.9470 H         1 TBP4    0.1147
     19 HB2         1.0090   -2.4190   -0.7150 H         1 TBP4    0.0707
     20 HD1        -1.5930   -0.8050   -2.8240 H         1 TBP4    0.1430
     21 HD2         2.5900   -1.7510   -2.4270 H         1 TBP4    0.1280
     22 HE1        -1.2160   -0.1150   -5.1700 H         1 TBP4    0.1390
     23 HE2         2.9660   -1.0710   -4.7760 H         1 TBP4    0.1390
     24 H1          1.9420    0.3470   -0.8640 H         1 TBP4    0.4268
     25 H2          2.2180   -0.5830    0.4700 H         1 TBP4    0.4828
     26 H3          1.5550    0.9180    0.6340 H         1 TBP4    0.4248
     27 HJ11        1.0040    1.8330   -5.6960 H         1 TBP4    0.0367
     28 HJ12        0.3660    1.7260   -7.3550 H         1 TBP4    0.0407
     29 HJ13        2.1230    1.7020   -7.0730 H         1 TBP4    0.0357
     30 HJ21        2.7350   -0.2400   -8.0000 H         1 TBP4    0.0407
     31 HJ22        2.3490   -1.7960   -7.2260 H         1 TBP4    0.0397
     32 HJ23        3.2280   -0.5430   -6.3170 H         1 TBP4    0.0347
     33 HJ31       -0.3590   -1.6540   -7.0390 H         1 TBP4    0.0437
     34 HJ32        0.3160   -0.8190   -8.4600 H         1 TBP4    0.0387
     35 HJ33       -0.8650    0.0100   -7.4180 H         1 TBP4    0.0377
@<TRIPOS>BOND
     1    3    2 1
     2    3    4 2
     3    3   13 1
     4    2    5 1
     5    2   17 1
     6    2    1 1
     7    5    6 1
     8    5   18 1
     9    5   19 1
    10    7    9 ar
    11    7    6 ar
    12    7   20 1
    13    8   10 ar
    14    8    6 ar
    15    8   21 1
    16    9   11 ar
    17    9   22 1
    18   10   11 ar
    19   10   23 1
    20   12   14 1
    21   12   15 1
    22   12   16 1
    23   12   11 1
    24   14   27 1
    25   14   28 1
    26   14   29 1
    27   15   30 1
    28   15   31 1
    29   15   32 1
    30   16   33 1
    31   16   34 1
    32   16   35 1
    33   24    1 1
    34   25    1 1
    35   26    1 1
@<TRIPOS>SUBSTRUCTURE
     1 TBP4     2 RESIDUE           4 A     TBP4     0 ROOT
