@<TRIPOS>MOLECULE
FCL.pdb
23 23 1 0 0
SMALL
AMBER ff99SB


@<TRIPOS>ATOM
      1 N          22.1880  -19.5900   47.7520 N.4       1 FCL   -0.8356
      2 CA         21.5330  -19.2300   49.0070 C.3       1 FCL   -0.0715
      3 C          20.1970  -19.9190   49.1360 C.2       1 FCL    0.9376
      4 O          19.7650  -20.6780   48.2650 O.co2     1 FCL   -0.8003
      5 CB         21.2900  -17.6940   49.0850 C.3       1 FCL   -0.0521
      6 CG         22.5350  -16.7980   49.0580 C.ar      1 FCL   -0.1033
      7 CD1        23.2500  -16.5680   50.2370 C.ar      1 FCL   -0.1200
      8 CD2        22.9570  -16.2010   47.8660 C.ar      1 FCL   -0.1570
      9 CE1        24.3720  -15.7450   50.2260 C.ar      1 FCL    0.0214
     10 CE2        24.0800  -15.3790   47.8570 C.ar      1 FCL   -0.1160
     11 CZ         24.7860  -15.1510   49.0350 C.ar      1 FCL   -0.1230
     12 OXT        19.5570  -19.7380   50.1450 O.co2     1 FCL   -0.7083
     13 CLE        25.2720  -15.4530   51.7220 Cl        1 FCL   -0.0794
     14 HN1        23.0780  -19.1170   47.6880 H         1 FCL    0.4248
     15 HN2        22.3350  -20.5890   47.7240 H         1 FCL    0.4258
     16 HN3        21.6040  -19.3140   46.9760 H         1 FCL    0.4848
     17 HA         22.1680  -19.5580   49.8510 H         1 FCL    0.0907
     18 HB1        20.7270  -17.4530   50.0080 H         1 FCL    0.1187
     19 HB2        20.5970  -17.3900   48.2730 H         1 FCL    0.0727
     20 HD1        22.9310  -17.0300   51.1590 H         1 FCL    0.1590
     21 HD2        22.4110  -16.3670   46.9470 H         1 FCL    0.1350
     22 HE2        24.4030  -14.9170   46.9360 H         1 FCL    0.1420
     23 HZ         25.6650  -14.5070   49.0270 H         1 FCL    0.1530
@<TRIPOS>BOND
     1    3    2 1
     2    3    4 2
     3    3   12 1
     4    2    5 1
     5    2   17 1
     6    2    1 1
     7    5    6 1
     8    5   18 1
     9    5   19 1
    10    7    9 ar
    11    7    6 ar
    12    7   20 1
    13    8   10 ar
    14    8    6 ar
    15    8   21 1
    16    9   13 1
    17    9   11 ar
    18   10   11 ar
    19   10   22 1
    20   11   23 1
    21   14    1 1
    22   15    1 1
    23   16    1 1
@<TRIPOS>SUBSTRUCTURE
     1 FCL     2 RESIDUE           4 A     FCL     0 ROOT
