@<TRIPOS>MOLECULE
I2M.pdb
25 24 1 0 0
SMALL
AMBER ff99SB


@<TRIPOS>ATOM
      1 N           0.1950    1.6360    1.1860 N.4       1 I2M1       -0.8326
      2 CA          0.3690    0.2160    0.8510 C.3       1 I2M1       -0.0625
      3 CB         -0.7320   -0.2180   -0.1190 C.3       1 I2M1       -0.0470
      4 CG3        -0.6470    0.6220   -1.3950 C.3       1 I2M1       -0.1061
      5 CG2        -0.5500   -1.6970   -0.4680 C.3       1 I2M1       -0.0891
      6 CG1        -2.0990   -0.0140    0.5360 C.3       1 I2M1       -0.0844
      7 CD1        -3.1990   -0.4470   -0.4330 C.3       1 I2M1       -0.0911
      8 C           1.7160    0.0150    0.2050 C.2       1 I2M1        0.9316
      9 O           2.2970    0.9530   -0.2870 O.co2     1 I2M1       -0.8083
     10 OXT         2.2700   -1.2080    0.1750 O.co2     1 I2M1       -0.7123
     11 H3          0.2470    2.2110    0.3600 H         1 I2M1        0.4828
     12 H2         -0.6730    1.7860    1.6790 H         1 I2M1        0.4188
     13 HA          0.3100   -0.3820    1.7600 H         1 I2M1        0.0887
     14 HG31        0.3270    0.4750   -1.8620 H         1 I2M1        0.0867
     15 HG32       -1.4310    0.3120   -2.0860 H         1 I2M1        0.0497
     16 HG33       -0.7770    1.6750   -1.1460 H         1 I2M1        0.0077
     17 HG21       -0.6100   -2.2940    0.4410 H         1 I2M1        0.0397
     18 HG22       -1.3340   -2.0050   -1.1590 H         1 I2M1        0.0377
     19 HG23        0.4240   -1.8420   -0.9350 H         1 I2M1        0.0897
     20 HG11       -2.1580   -0.6110    1.4460 H         1 I2M1        0.0377
     21 HG12       -2.2290    1.0400    0.7860 H         1 I2M1        0.0087
     22 HD11       -3.1400    0.1510   -1.3420 H         1 I2M1        0.0417
     23 HD12       -3.0710   -1.5000   -0.6810 H         1 I2M1        0.0467
     24 HD13       -4.1730   -0.3010    0.0340 H         1 I2M1        0.0337
     25 H1          0.9500    1.9050    1.8000 H         1 I2M1        0.4308
@<TRIPOS>BOND
     1    8    2 1
     2    8    9 2
     3    8   10 1
     4    2    1 1
     5    2    3 1
     6    2   13 1
     7    3    4 1
     8    3    5 1
     9    3    6 1
    10    7    6 1
    11    7   22 1
    12    7   23 1
    13    7   24 1
    14    6   20 1
    15    6   21 1
    16    5   18 1
    17    5   17 1
    18    5   19 1
    19    4   14 1
    20    4   15 1
    21    4   16 1
    22   11    1 1
    23   25    1 1
    24   12    1 1
@<TRIPOS>SUBSTRUCTURE
     1 I2M1        2 RESIDUE           4 A     I2M     0 ROOT
