@<TRIPOS>MOLECULE
BUG.pdb
22 21 1 0 0
SMALL
AMBER ff99SB


@<TRIPOS>ATOM
      1 N          -2.8800    4.0340   31.6060 N.4       1 BUG   -0.8336
      2 CA         -4.2800    4.3330   31.3200 C.3       1 BUG   -0.0605
      3 C          -5.1820    3.2270   31.8130 C.2       1 BUG    0.9326
      4 O          -4.9670    2.0320   31.5060 O.co2     1 BUG   -0.8083
      5 CB         -4.4720    4.5650   29.7690 C.3       1 BUG   -0.0510
      6 CG1        -5.9210    4.8540   29.2890 C.3       1 BUG   -0.0881
      7 CG2        -3.6160    5.7210   29.1970 C.3       1 BUG   -0.1101
      8 CG3        -4.0210    3.1910   29.2390 C.3       1 BUG   -0.1021
      9 OXT        -6.3000    3.5490   32.6440 O.co2     1 BUG   -0.7123
     10 HA         -4.5480    5.2524   31.8405 H         1 BUG    0.0887
     11 HG11       -6.5883    4.0744   29.6565 H         1 BUG    0.0917
     12 HG12       -6.2451    5.8207   29.6743 H         1 BUG    0.0387
     13 HG13       -5.9464    4.8701   28.1994 H         1 BUG    0.0357
     14 HG21       -2.5763    5.5857   29.4949 H         1 BUG    0.0117
     15 HG22       -3.6851    5.7201   28.1092 H         1 BUG    0.0587
     16 HG23       -3.9840    6.6714   29.5836 H         1 BUG    0.0357
     17 H1         -2.6315    4.4144   32.5080 H         1 BUG    0.4298
     18 H2         -2.2954    4.4476   30.8938 H         1 BUG    0.4188
     19 H3         -2.7443    3.0332   31.6137 H         1 BUG    0.4828
     20 HG31       -3.5592    3.3127   28.2592 H         1 BUG    0.0477
     21 HG32       -3.2988    2.7548   29.9292 H         1 BUG    0.0087
     22 HG33       -4.8856    2.5327   29.1539 H         1 BUG    0.0857
@<TRIPOS>BOND
     1    3    2 1
     2    3    4 2
     3    3    9 1
     4    2    5 1
     5    2    1 1
     6    5    6 1
     7    5    7 1
     8    5    8 1
     9   10    2 1
    10   11    6 1
    11   12    6 1
    12   13    6 1
    13   14    7 1
    14   15    7 1
    15   16    7 1
    16   17    1 1
    17   18    1 1
    18   19    1 1
    19   20    8 1
    20   21    8 1
    21   22    8 1
@<TRIPOS>SUBSTRUCTURE
     1 BUG     2 RESIDUE           4 A     BUG     0 ROOT
