@<TRIPOS>MOLECULE
ASP.pdb
 15 14 0 0 0
SMALL
GASTEIGER

@<TRIPOS>ATOM
      1  N         -0.6100   -1.8250   -0.6300 N.4     1  ASP1        0.3874
      2  CA        -0.0510   -0.4760   -0.6300 C.3     1  ASP1        0.0307
      3  O          2.0880   -1.5840   -0.6300 O.co2   1  ASP1       -0.2482
      4  CB        -0.5860    0.3370    0.5820 C.3     1  ASP1        0.0464
      5  CG        -0.1240    1.8010    0.6520 C.2     1  ASP1        0.3550
      6  OD1       -0.0070    2.4530   -0.4060 O.co2   1  ASP1       -0.2464
      7  OD2        0.1650    2.2830    1.7670 O.co2   1  ASP1       -0.2464
      8  C          1.4890   -0.5420   -0.6300 C.2     1  ASP1        0.3426
      9  OXT        2.2310    0.6800   -0.6300 O.co2   1  ASP1       -0.2482
     10  H3         0.0170   -2.7040   -0.6300 H       1  ASP1       -0.0889
     11  HA        -0.3660    0.0300   -1.5630 H       1  ASP1        0.0203
     12  HB1       -0.2910   -0.1540    1.5270 H       1  ASP1        0.0368
     13  HB2       -1.6880    0.3540    0.5860 H       1  ASP1        0.0368
     14  H1        -1.1890   -1.8910    0.1950 H       1  ASP1       -0.0889
     15  H2        -1.2220   -1.8950   -1.4310 H       1  ASP1       -0.0889
@<TRIPOS>BOND
     1     8     9    1
     2     2     4    1
     3     2     8    1
     4     2    11    1
     5     4     5    1
     6     4    12    1
     7     4    13    1
     8     5     6   ar
     9     5     7   ar
    10     1    15    1
    11     1     2    1
    12     1    10    1
    13     1    14    1
    14     3     8    2
