@<TRIPOS>MOLECULE
HGA.pdb
21 20 1 0 0
SMALL
AMBER ff99SB


@<TRIPOS>ATOM
      1 N           2.8342    0.8171   -1.8466 N.4       1 HGA1       -0.8206
      2 CA          2.8011   -0.3098   -0.9060 C.3       1 HGA1       -0.0785
      3 CB          1.3682   -0.8290   -0.7812 C.3       1 HGA1       -0.0864
      4 CG          0.4634    0.2900   -0.2655 C.3       1 HGA1       -0.1684
      5 CD         -0.9491   -0.2199   -0.1435 C.2       1 HGA1        0.6101
      6 OE1        -1.2066   -1.3676   -0.4380 O.2       1 HGA1       -0.6381
      7 NE2        -1.9271    0.5983    0.2943 N.am      1 HGA1       -0.3514
      8 OZ         -3.2527    0.1174    0.4096 O.3       1 HGA1       -0.4251
      9 C           3.6932   -1.4141   -1.4119 C.2       1 HGA1        0.9386
     10 O           3.8582   -1.5594   -2.6004 O.co2     1 HGA1       -0.7963
     11 OXT         4.3047   -2.2346   -0.5449 O.co2     1 HGA1       -0.7203
     12 HN1         2.1489    1.4836   -1.5243 H         1 HGA1        0.4398
     13 HN2         2.5016    0.4654   -2.7320 H         1 HGA1        0.4798
     14 HA          3.1538    0.0222    0.0711 H         1 HGA1        0.0867
     15 HB1         1.0167   -1.1607   -1.7562 H         1 HGA1        0.0597
     16 HB2         1.3428   -1.6654   -0.0829 H         1 HGA1        0.1297
     17 HG1         0.8154    0.6234    0.7108 H         1 HGA1        0.0747
     18 HG2         0.4880    1.1277   -0.9646 H         1 HGA1        0.0837
     19 HE         -1.7213    1.5161    0.5297 H         1 HGA1        0.3155
     20 HZ         -3.7896    0.8522    0.7359 H         1 HGA1        0.4370
     21 HN3         3.7551    1.2236   -1.9201 H         1 HGA1        0.4288
@<TRIPOS>BOND
     1    9    2 1
     2    9   10 2
     3    9   11 1
     4    2    1 1
     5    2    3 1
     6    2   14 1
     7    3    4 1
     8    3   15 1
     9    3   16 1
    10    5    4 1
    11    5    6 2
    12    5    7 am
    13    4   18 1
    14    4   17 1
    15   21    1 1
    16   12    1 1
    17   13    1 1
    18   19    7 1
    19   20    8 1
    20    7    8 1
@<TRIPOS>SUBSTRUCTURE
     1 HGA1        2 RESIDUE           4 A     HGA     0 ROOT
