@<TRIPOS>MOLECULE
TPO2.pdb
20 19 1 0 0
SMALL
AMBER ff99SB


@<TRIPOS>ATOM
      1 N           0.7600   -2.5950    0.8110 N.4       1 TPO21       -1.1106
      2 CA          0.9480   -1.2520    1.3730 C.3       1 TPO21        0.0385
      3 C          -0.3180   -0.8110    2.0560 C.2       1 TPO21        0.9146
      4 O          -1.3880   -1.2060    1.6600 O.co2     1 TPO21       -0.8603
      5 CB          1.2900   -0.2720    0.2480 C.3       1 TPO21        0.1781
      6 CG2         1.5080    1.1230    0.8350 C.3       1 TPO21       -0.1031
      7 OG1         2.4810   -0.7030   -0.4120 O.3       1 TPO21       -0.6002
      8 P           2.0910   -0.9590   -1.9520 P.3       1 TPO21        1.3419
      9 O1P         1.5850    0.2960   -2.5500 O.co2     1 TPO21       -0.8395
     10 O2P         3.3960   -1.4490   -2.7600 O.co2     1 TPO21       -0.8645
     11 O3P         0.9510   -2.0920   -2.0360 O.co2     1 TPO21       -0.4945
     12 OXT        -0.2590    0.0240    3.1060 O.co2     1 TPO21       -0.8693
     13 HA          1.7640   -1.2720    2.0960 H         1 TPO21        0.0437
     14 HB          0.4680   -0.2410   -0.4680 H         1 TPO21        0.0487
     15 HG21        2.3280    1.0930    1.5510 H         1 TPO21        0.0177
     16 HG22        1.7510    1.8210    0.0360 H         1 TPO21        0.0087
     17 HG23        0.5990    1.4530    1.3390 H         1 TPO21        0.0607
     18 H1          0.5820   -3.2850    1.5260 H         1 TPO21        0.3398
     19 H2         -0.0000   -2.5290    0.1500 H         1 TPO21        0.3328
     20 H3          1.5900   -2.8060    0.2780 H         1 TPO21        0.4178
@<TRIPOS>BOND
     1    3    2 1
     2    3    4 2
     3    3   12 2
     4    2    5 1
     5    2   13 1
     6    2    1 1
     7    5    6 1
     8    5   14 1
     9    5    7 1
    10    6   15 1
    11    6   16 1
    12    6   17 1
    13   18    1 1
    14   19    1 1
    15   20    1 1
    16    9    8 1
    17   10    8 1
    18   11    8 1
    19    7    8 1
@<TRIPOS>SUBSTRUCTURE
     1 TPO21        2 RESIDUE           4 A     TPO2     0 ROOT
