@<TRIPOS>MOLECULE
IGL.pdb
27 28 1 0 0
SMALL
AMBER ff99SB


@<TRIPOS>ATOM
      1 N          -3.3690    0.9430    1.0950 N.4       1 IGL   -0.8366
      2 CA         -2.1710    0.3640    1.7160 C.3       1 IGL   -0.0675
      3 C          -2.5710   -0.7850    2.6050 C.2       1 IGL    0.9346
      4 O          -3.7350   -1.0940    2.7040 O.co2     1 IGL   -0.8023
      5 CB         -1.4620    1.4320    2.5500 C.3       1 IGL   -0.0697
      6 CG1        -0.1960    0.8550    3.2190 C.3       1 IGL   -0.0321
      7 CG2        -0.8840    2.5400    1.6470 C.3       1 IGL   -0.0491
      8 CD1         0.8060    1.9890    3.2140 C.ar      1 IGL   -0.0743
      9 CD2         0.4100    2.9570    2.3110 C.ar      1 IGL   -0.1033
     10 CE1         1.9710    2.1600    3.9430 C.ar      1 IGL   -0.1150
     11 CE2         1.1820    4.0930    2.1390 C.ar      1 IGL   -0.1140
     12 CH1         2.7400    3.2940    3.7680 C.ar      1 IGL   -0.1220
     13 CH2         2.3430    4.2620    2.8670 C.ar      1 IGL   -0.1350
     14 OXT        -1.6350   -1.4650    3.2850 O.co2     1 IGL   -0.7123
     15 HA         -1.4980    0.0040    0.9380 H         1 IGL    0.0947
     16 HB         -2.1380    1.8490    3.2970 H         1 IGL    0.0697
     17 HG11       -0.4150    0.5460    4.2410 H         1 IGL    0.0757
     18 HG12        0.1840    0.0110    2.6430 H         1 IGL    0.1077
     19 HG21       -0.6870    2.1510    0.6490 H         1 IGL    0.0307
     20 HG22       -1.5710    3.3840    1.5980 H         1 IGL    0.0487
     21 HE1         2.2800    1.4030    4.6480 H         1 IGL    0.1420
     22 HE2         0.8740    4.8520    1.4330 H         1 IGL    0.1290
     23 HH1         3.6470    3.4240    4.3390 H         1 IGL    0.1330
     24 HH2         2.9440    5.1500    2.7300 H         1 IGL    0.1310
     25 H1         -3.1520    1.7500    0.5290 H         1 IGL    0.4188
     26 H2         -3.8020    0.2080    0.5570 H         1 IGL    0.4298
     27 H3         -4.0070    1.1650    1.8460 H         1 IGL    0.4848
@<TRIPOS>BOND
     1    3    2 1
     2    3    4 2
     3    3   14 2
     4    2    5 1
     5    2   15 1
     6    2    1 1
     7    5    6 1
     8    5    7 1
     9    5   16 1
    10    8    9 ar
    11    8   10 ar
    12    8    6 1
    13    9   11 ar
    14    9    7 1
    15   10   12 ar
    16   10   21 1
    17   11   13 ar
    18   11   22 1
    19    6   17 1
    20    6   18 1
    21    7   19 1
    22    7   20 1
    23   12   13 ar
    24   12   23 1
    25   13   24 1
    26   25    1 1
    27   26    1 1
    28   27    1 1
@<TRIPOS>SUBSTRUCTURE
     1 IGL     2 RESIDUE           4 A     IGL     0 ROOT
