@<TRIPOS>MOLECULE
ALA.pdb
 13 12 0 0 0
SMALL
GASTEIGER

@<TRIPOS>ATOM
      1  N         47.5090   41.1150  -84.7960 N.4     1  ALA1        0.3869
      2  CA        48.1850   42.4090  -84.7960 C.3     1  ALA1        0.0176
      3  O         50.2160   41.1180  -84.8070 O.co2   1  ALA1       -0.2483
      4  CB        47.6770   43.2010  -83.5790 C.3     1  ALA1       -0.0683
      5  C         49.7130   42.2080  -84.7970 C.2     1  ALA1        0.3418
      6  OXT       50.5610   43.3600  -84.7840 O.co2   1  ALA1       -0.2483
      7  H3        48.0550   40.1830  -84.7960 H       1  ALA1       -0.0889
      8  HA        47.9170   42.9480  -85.7240 H       1  ALA1        0.0195
      9  HB1       46.5810   43.3510  -83.6150 H       1  ALA1        0.0219
     10  HB2       47.9010   42.6870  -82.6240 H       1  ALA1        0.0219
     11  HB3       48.1330   44.2060  -83.5220 H       1  ALA1        0.0219
     12  H1        46.9260   41.1010  -83.9710 H       1  ALA1       -0.0889
     13  H2        46.8930   41.1000  -85.5970 H       1  ALA1       -0.0889
@<TRIPOS>BOND
     1     5     6    1
     2     2     4    1
     3     2     5    1
     4     2     8    1
     5     4    10    1
     6     4     9    1
     7     4    11    1
     8     1     2    1
     9     1     7    1
    10     1    12    1
    11     1    13    1
    12     3     5    2
