@<TRIPOS>MOLECULE
QU35.pdb
28 29 1 0 0
SMALL
AMBER ff99SB


@<TRIPOS>ATOM
      1 N          34.5970   29.7190   39.9000 N.4       1 QU35   -0.8356
      2 CA         34.6950   29.7890   41.3630 C.3       1 QU35   -0.0695
      3 C          33.3740   29.3980   42.0290 C.2       1 QU35    0.9366
      4 O          33.2320   28.2900   42.5560 O.co2     1 QU35   -0.7083
      5 CB         35.1710   31.1700   41.9430 C.3       1 QU35   -0.0511
      6 CG         36.6080   31.4890   41.6060 C.ar      1 QU35   -0.1123
      7 CD1        36.9260   32.1750   40.4340 C.ar      1 QU35   -0.1550
      8 CD2        37.6420   31.1020   42.4610 C.ar      1 QU35   -0.1553
      9 CE1        38.2490   32.4730   40.1200 C.ar      1 QU35   -0.1020
     10 CE2        38.9700   31.3950   42.1590 C.ar      1 QU35    0.1316
     11 CZ         39.2740   32.0810   40.9870 C.ar      1 QU35   -0.1523
     12 CJ1        41.5980   31.9350   41.5270 C.ar      1 QU35   -0.2433
     13 CJ2        41.2940   31.2390   42.7070 C.ar      1 QU35    0.1552
     14 OXT        32.4400   30.1980   42.0400 O.co2     1 QU35   -0.8023
     15 NH2        39.9430   30.8620   43.1050 N.ar      1 QU35   -0.1270
     16 CH1        40.5690   32.3170   40.6500 C.ar      1 QU35   -0.0800
     17 HA         35.4338   29.0471   41.6663 H         1 QU35    0.0917
     18 HB1        34.5360   31.9557   41.5337 H         1 QU35    0.0717
     19 HB2        35.0583   31.1547   43.0270 H         1 QU35    0.1177
     20 HD1        36.1366   32.4785   39.7623 H         1 QU35    0.1350
     21 HD2        37.4087   30.5675   43.3700 H         1 QU35    0.1620
     22 HE1        38.4832   33.0052   39.2099 H         1 QU35    0.1390
     23 HJ1        42.6241   32.1773   41.2928 H         1 QU35    0.1490
     24 HJ2        42.1100   30.9661   43.3597 H         1 QU35    0.0281
     25 HH1        40.8064   32.7963   39.7117 H         1 QU35    0.1420
     26 H1         35.4818   29.9819   39.4899 H         1 QU35    0.4258
     27 H2         33.8770   30.3511   39.5804 H         1 QU35    0.4838
     28 H3         34.3644   28.7760   39.6229 H         1 QU35    0.4248
@<TRIPOS>BOND
     1    3    2 1
     2    3    4 2
     3    3   14 1
     4    2    5 1
     5    2    1 1
     6    5    6 1
     7    7    9 ar
     8    7    6 ar
     9    8   10 ar
    10    8    6 ar
    11    9   11 ar
    12   10   11 ar
    13   10   15 ar
    14   16   12 ar
    15   16   11 ar
    16   12   13 ar
    17   13   15 ar
    18   17    2 1
    19   18    5 1
    20   19    5 1
    21   20    7 1
    22   21    8 1
    23   22    9 1
    24   23   12 1
    25   24   13 1
    26   25   16 1
    27   26    1 1
    28   27    1 1
    29   28    1 1
@<TRIPOS>SUBSTRUCTURE
     1 QU35     2 RESIDUE           4 B     QU35     0 ROOT
