@<TRIPOS>MOLECULE
SLZ.pdb
23 22 1 0 0
SMALL
AMBER ff99SB


@<TRIPOS>ATOM
      1 N           3.5401    0.3960    0.1362 N.4       1 SLZ1       -0.8296
      2 CA          2.5566    0.9341   -0.8133 C.3       1 SLZ1       -0.0545
      3 CB          1.2198    1.1418   -0.1002 C.3       1 SLZ1       -0.0263
      4 SG          0.6284   -0.4423    0.5499 S.3       1 SLZ1       -0.2422
      5 CD         -0.9245    0.0910    1.3192 C.3       1 SLZ1       -0.0543
      6 CE         -1.6223   -1.1134    1.9540 C.3       1 SLZ1        0.1238
      7 NZ         -2.8798   -0.6820    2.5769 N.4       1 SLZ1       -0.8376
      8 C           3.0498    2.2513   -1.3543 C.2       1 SLZ1        0.9476
      9 O           3.7534    2.9583   -0.6731 O.co2     1 SLZ1       -0.7243
     10 OXT         2.7061    2.6389   -2.5920 O.co2     1 SLZ1       -0.8513
     11 H3          3.1260   -0.4247    0.5483 H         1 SLZ1        0.4448
     12 H2          3.6291    1.0769    0.8757 H         1 SLZ1        0.4948
     13 HA          2.4239    0.2311   -1.6353 H         1 SLZ1        0.1057
     14 HB1         0.4905    1.5405   -0.8045 H         1 SLZ1        0.1047
     15 HB2         1.3525    1.8448    0.7217 H         1 SLZ1        0.0847
     16 HD1        -1.5735    0.5281    0.5619 H         1 SLZ1        0.1237
     17 HD2        -0.7117    0.8333    2.0881 H         1 SLZ1        0.1167
     18 HE1        -0.9724   -1.5524    2.7122 H         1 SLZ1        0.1077
     19 HE2        -1.8340   -1.8564    1.1847 H         1 SLZ1        0.1077
     20 HZ1        -3.3008   -1.5039    2.9800 H         1 SLZ1        0.4488
     21 HZ2        -2.6289   -0.0778    3.3461 H         1 SLZ1        0.4838
     22 H1          4.4266    0.1954   -0.3058 H         1 SLZ1        0.4388
     23 HZ3        -3.4927   -0.2242    1.9173 H         1 SLZ1        0.4858
@<TRIPOS>BOND
     1    8    2 1
     2    8    9 2
     3    8   10 1
     4    2    1 1
     5    2    3 1
     6    2   13 1
     7    3    4 1
     8    3   14 1
     9    3   15 1
    10    5    4 1
    11    5    6 1
    12    5   16 1
    13    5   17 1
    14    6    7 1
    15    6   18 1
    16    6   19 1
    17   11    1 1
    18   22    1 1
    19   12    1 1
    20   20    7 1
    21   21    7 1
    22   23    7 1
@<TRIPOS>SUBSTRUCTURE
     1 SLZ1        2 RESIDUE           4 A     SLZ     0 ROOT
