@<TRIPOS>MOLECULE
TRP.pdb
 27 28 0 0 0
SMALL
GASTEIGER

@<TRIPOS>ATOM
      1  N          3.3030   -3.0190   -0.4230 N.4     1  TRP1        0.3873
      2  CA         3.8650   -1.6720   -0.4520 C.3     1  TRP1        0.0246
      3  O          5.9960   -2.7760   -0.4280 O.co2   1  TRP1       -0.2482
      4  CB         3.3610   -0.8840    0.7890 C.3     1  TRP1       -0.0286
      5  CG         1.8550   -0.6050    0.8030 C.ar    1  TRP1       -0.0234
      6  CD1        0.8830   -1.3710    1.4790 C.ar    1  TRP1        0.0059
      7  CD2        1.1580    0.3610    0.1070 C.ar    1  TRP1        0.0028
      8  CE2       -0.2220    0.1750    0.3700 C.ar    1  TRP1        0.0467
      9  CE3        1.5940    1.3890   -0.7680 C.ar    1  TRP1       -0.0523
     10  NE1       -0.4190   -0.8990    1.2250 N.ar    1  TRP1       -0.3604
     11  CZ2       -1.1760    1.0240   -0.2320 C.ar    1  TRP1       -0.0378
     12  CZ3        0.6330    2.2190   -1.3450 C.ar    1  TRP1       -0.0611
     13  CH2       -0.7320    2.0420   -1.0800 C.ar    1  TRP1       -0.0598
     14  C          5.4040   -1.7320   -0.4510 C.2     1  TRP1        0.3423
     15  OXT        6.1480   -0.5110   -0.4770 O.co2   1  TRP1       -0.2482
     16  H3         3.8820   -3.8340   -0.4050 H       1  TRP1       -0.0889
     17  HA         3.5460   -1.1660   -1.3830 H       1  TRP1        0.0201
     18  HB1        3.8810    0.0900    0.8610 H       1  TRP1        0.0303
     19  HB2        3.6450   -1.4150    1.7190 H       1  TRP1        0.0303
     20  HD1        1.1120   -2.2430    2.0780 H       1  TRP1        0.0810
     21  HE1       -1.3110   -1.2870    1.5520 H       1  TRP1        0.1653
     22  HE3        2.6440    1.5280   -0.9840 H       1  TRP1        0.0624
     23  HZ2       -2.2290    0.8860   -0.0360 H       1  TRP1        0.0638
     24  HZ3        0.9490    3.0120   -2.0080 H       1  TRP1        0.0618
     25  HH3       -1.4520    2.7030   -1.5380 H       1  TRP1        0.0618
     26  H1         2.7240   -3.1020   -1.2460 H       1  TRP1       -0.0889
     27  H2         2.6910   -3.0700    0.3790 H       1  TRP1       -0.0889
@<TRIPOS>BOND
     1    14    15    1
     2     2     4    1
     3     2    14    1
     4     2    17    1
     5     4    18    1
     6     4     5    1
     7     4    19    1
     8     6    10   ar
     9     6    20    1
    10     7     9   ar
    11     7     8   ar
    12     8    10   ar
    13     8    11   ar
    14     9    12   ar
    15     9    22    1
    16     5     6   ar
    17     5     7   ar
    18    13    25    1
    19    11    13   ar
    20    11    23    1
    21    12    13   ar
    22    12    24    1
    23     1    26    1
    24     1     2    1
    25     1    16    1
    26     1    27    1
    27    10    21    1
    28     3    14    2
