@<TRIPOS>MOLECULE
ANTH.pdb
35 37 1 0 0
SMALL
AMBER ff99SB


@<TRIPOS>ATOM
      1 N          22.1880  -19.5900   47.7520 N.4       1 ANTH   -0.8356
      2 CA         21.5330  -19.2300   49.0070 C.3       1 ANTH   -0.0695
      3 C          20.1970  -19.9190   49.1360 C.2       1 ANTH    0.9356
      4 O          19.7650  -20.6780   48.2650 O.co2     1 ANTH   -0.8023
      5 OXT        19.5570  -19.7380   50.1450 O.co2     1 ANTH   -0.7163
      6 CD1        23.2970  -16.6780   50.2590 C.ar      1 ANTH   -0.0190
      7 CF1        22.9860  -17.3300   51.4860 C.ar      1 ANTH   -0.1320
      8 CJ1        23.7450  -17.1220   52.6510 C.ar      1 ANTH   -0.1150
      9 CJ2        24.8550  -16.2700   52.6220 C.ar      1 ANTH   -0.1210
     10 CF2        25.2170  -15.6430   51.4230 C.ar      1 ANTH   -0.1220
     11 CE1        24.4600  -15.8500   50.2470 C.ar      1 ANTH   -0.0360
     12 CZ         24.8710  -15.2290   49.0560 C.ar      1 ANTH   -0.0990
     13 CE2        24.1680  -15.4280   47.8550 C.ar      1 ANTH   -0.0430
     14 CD2        23.0010  -16.2510   47.8370 C.ar      1 ANTH   -0.0420
     15 CG         22.5170  -16.8170   49.0620 C.ar      1 ANTH   -0.0933
     16 CH1        22.3860  -16.4630   46.5700 C.ar      1 ANTH   -0.1660
     17 CH2        24.6380  -14.8060   46.6750 C.ar      1 ANTH   -0.1060
     18 CM2        23.9820  -15.0070   45.4540 C.ar      1 ANTH   -0.1350
     19 CM1        22.8610  -15.8440   45.4010 C.ar      1 ANTH   -0.1090
     20 CB         21.2860  -17.6970   49.0890 C.3       1 ANTH   -0.0551
     21 HN1        23.0780  -19.1170   47.6880 H         1 ANTH    0.4338
     22 HN2        22.3350  -20.5890   47.7240 H         1 ANTH    0.4258
     23 HN3        21.6040  -19.3140   46.9760 H         1 ANTH    0.4808
     24 HA         22.1680  -19.5580   49.8510 H         1 ANTH    0.0907
     25 HB1        20.7270  -17.4530   50.0080 H         1 ANTH    0.1157
     26 HB2        20.5970  -17.3900   48.2730 H         1 ANTH    0.0737
     27 HF1        22.1427  -18.0038   51.5228 H         1 ANTH    0.1540
     28 HJ1        23.4712  -17.6202   53.5693 H         1 ANTH    0.1420
     29 HJ2        25.4297  -16.0968   53.5199 H         1 ANTH    0.1380
     30 HF2        26.0814  -14.9961   51.3966 H         1 ANTH    0.1350
     31 HZ         25.7407  -14.5887   49.0631 H         1 ANTH    0.1390
     32 HH1        21.5300  -17.1183   46.5057 H         1 ANTH    0.1360
     33 HH2        25.5103  -14.1705   46.7158 H         1 ANTH    0.1370
     34 HM2        24.3387  -14.5193   44.5588 H         1 ANTH    0.1400
     35 HM1        22.3600  -16.0144   44.4595 H         1 ANTH    0.1390
@<TRIPOS>BOND
     1    3    2 1
     2    3    4 2
     3    3    5 1
     4    2   20 1
     5    2   24 1
     6    2    1 1
     7   20   15 1
     8   20   25 1
     9   20   26 1
    10    6   11 ar
    11    6    7 ar
    12    6   15 ar
    13   14   13 ar
    14   14   15 ar
    15   14   16 ar
    16   11   10 ar
    17   11   12 ar
    18   13   17 ar
    19   13   12 ar
    20    7    8 ar
    21   10    9 ar
    22   16   19 ar
    23   17   18 ar
    24    8    9 ar
    25   19   18 ar
    26   21    1 1
    27   22    1 1
    28   23    1 1
    29   27    7 1
    30   28    8 1
    31   29    9 1
    32   30   10 1
    33   31   12 1
    34   32   16 1
    35   33   17 1
    36   34   18 1
    37   35   19 1
@<TRIPOS>SUBSTRUCTURE
     1 ANTH     2 RESIDUE           4 A     ANTH     0 ROOT
