@<TRIPOS>MOLECULE
QU34.pdb
28 29 1 0 0
SMALL
AMBER ff99SB


@<TRIPOS>ATOM
      1 N          14.0250   32.0590  -72.0160 N.4       1 QU34   -0.8346
      2 CA         13.6090   33.1970  -71.1870 C.3       1 QU34   -0.0745
      3 C          12.5980   34.0800  -71.9210 C.2       1 QU34    0.9386
      4 O          11.3950   34.0340  -71.6430 O.co2     1 QU34   -0.7113
      5 CB         14.8270   34.0310  -70.7630 C.3       1 QU34   -0.0591
      6 CG         15.9210   33.2270  -70.1020 C.ar      1 QU34   -0.0533
      7 CD1        15.8750   32.9570  -68.7340 C.ar      1 QU34   -0.1453
      8 CD2        16.9970   32.7410  -70.8480 C.ar      1 QU34   -0.2813
      9 CE1        16.8800   32.2150  -68.1210 C.ar      1 QU34    0.3936
     10 CE2        18.0080   31.9960  -70.2460 C.ar      1 QU34    0.4092
     11 CJ1        14.7060   33.1870  -66.5950 C.ar      1 QU34   -0.1190
     12 CJ2        15.7050   32.4240  -65.9690 C.ar      1 QU34   -0.1170
     13 OXT        12.9880   34.8460  -72.8000 O.co2     1 QU34   -0.7973
     14 NZ         18.0320   31.6720  -68.8270 N.ar      1 QU34   -0.6490
     15 CH1        14.7820   33.4470  -67.9740 C.ar      1 QU34   -0.1200
     16 CH2        16.7800   31.9210  -66.7210 C.ar      1 QU34   -0.1673
     17 HA         13.1322   32.8076  -70.2875 H         1 QU34    0.0937
     18 HB1        14.4918   34.7952  -70.0618 H         1 QU34    0.1227
     19 HB2        15.2384   34.5221  -71.6448 H         1 QU34    0.0727
     20 HD2        17.0458   32.9459  -71.9073 H         1 QU34    0.1400
     21 HE2        18.8178   31.6394  -70.8653 H         1 QU34    0.0261
     22 HJ1        13.8797   33.5738  -66.0170 H         1 QU34    0.1440
     23 HJ2        15.6470   32.2238  -64.9093 H         1 QU34    0.1410
     24 HH1        14.0056   34.0219  -68.4568 H         1 QU34    0.1540
     25 HH2        17.5329   31.3114  -66.2435 H         1 QU34    0.1540
     26 H1         13.2124   31.5229  -72.2850 H         1 QU34    0.4278
     27 H2         14.6560   31.4720  -71.4894 H         1 QU34    0.4248
     28 H3         14.4932   32.3989  -72.8439 H         1 QU34    0.4838
@<TRIPOS>BOND
     1    3    2 1
     2    3    4 2
     3    3   13 1
     4    2    5 1
     5    2    1 1
     6    5    6 1
     7    7    9 ar
     8    7   15 ar
     9    7    6 ar
    10    8   10 ar
    11    8    6 ar
    12    9   16 ar
    13    9   14 ar
    14   10   14 ar
    15   15   11 ar
    16   16   12 ar
    17   11   12 ar
    18   17    2 1
    19   18    5 1
    20   19    5 1
    21   20    8 1
    22   21   10 1
    23   22   11 1
    24   23   12 1
    25   24   15 1
    26   25   16 1
    27   26    1 1
    28   27    1 1
    29   28    1 1
@<TRIPOS>SUBSTRUCTURE
     1 QU34     2 RESIDUE           4 A     QU34     0 ROOT
