@<TRIPOS>MOLECULE
HIL4.pdb
23 22 1 0 0
SMALL
AMBER ff99SB


@<TRIPOS>ATOM
      1 N          22.1880  -19.5900   47.7520 N.4       1 HIL4   -0.8236
      2 CA         21.5330  -19.2300   49.0070 C.3       1 HIL4   -0.0665
      3 C          20.1970  -19.9190   49.1360 C.2       1 HIL4    0.9326
      4 O          19.7650  -20.6780   48.2650 O.co2     1 HIL4   -0.8043
      5 CB         21.2900  -17.6940   49.0850 C.3       1 HIL4   -0.0957
      6 CG2        20.4250  -17.1900   50.2550 C.3       1 HIL4   -0.1021
      7 OXT        19.5570  -19.7380   50.1450 O.co2     1 HIL4   -0.7193
      8 CG1        22.6460  -16.9630   49.0960 C.3       1 HIL4    0.1221
      9 OD1        23.0670  -16.7600   50.4470 O.3       1 HIL4   -0.6358
     10 CD2        22.5020  -15.6020   48.3920 C.3       1 HIL4   -0.1221
     11 HN1        23.0780  -19.1170   47.6880 H         1 HIL4    0.4388
     12 HN2        22.3350  -20.5890   47.7240 H         1 HIL4    0.4368
     13 HN3        21.6040  -19.3140   46.9760 H         1 HIL4    0.4698
     14 HA         22.1680  -19.5580   49.8510 H         1 HIL4    0.0877
     15 HB1        20.8160  -17.3440   48.1470 H         1 HIL4    0.0867
     16 HG21       20.9000  -17.4550   51.2000 H         1 HIL4    0.0217
     17 HG22       19.4390  -17.6520   50.2030 H         1 HIL4    0.1027
     18 HD11       23.3120  -17.6020   50.8370 H         1 HIL4    0.4180
     19 HD21       22.2120  -15.7580   47.3530 H         1 HIL4    0.0577
     20 HG11       23.3870  -17.5670   48.5720 H         1 HIL4    0.0547
     21 HD22       23.4530  -15.0710   48.4280 H         1 HIL4    0.0507
     22 HD23       21.7370  -15.0110   48.8960 H         1 HIL4    0.0477
     23 HG23       20.3240  -16.1070   50.1910 H         1 HIL4    0.0427
@<TRIPOS>BOND
     1    3    2 1
     2    3    4 2
     3    3    7 1
     4    2    5 1
     5    2   14 1
     6    2    1 1
     7    5    8 1
     8    5    6 1
     9    5   15 1
    10   10    8 1
    11   10   19 1
    12   10   21 1
    13   10   22 1
    14    8   20 1
    15    8    9 1
    16    6   16 1
    17    6   17 1
    18    6   23 1
    19   18    9 1
    20   11    1 1
    21   12    1 1
    22   13    1 1
@<TRIPOS>SUBSTRUCTURE
     1 HIL4     2 RESIDUE           4 A     HIL4     0 ROOT
