@<TRIPOS>MOLECULE
GLN.pdb
 20 19 0 0 0
SMALL
GASTEIGER

@<TRIPOS>ATOM
      1  N         -0.3110   -2.4820   -1.3870 N.4     1  GLN1        0.3871
      2  CA         0.2410   -1.1310   -1.3870 C.3     1  GLN1        0.0209
      3  O          2.3800   -2.2180   -1.3870 O.co2   1  GLN1       -0.2483
      4  CB        -0.2970   -0.3760   -0.1510 C.3     1  GLN1       -0.0477
      5  CG         0.1520    1.1150   -0.0030 C.3     1  GLN1        0.0227
      6  CD        -0.2930    1.9100    1.2310 C.2     1  GLN1        0.2104
      7  NE2       -1.0520    1.3450    2.1350 N.am    1  GLN1       -0.3293
      8  OE1        0.0690    3.0640    1.4020 O.2     1  GLN1       -0.2760
      9  C          1.7800   -1.1790   -1.3870 C.2     1  GLN1        0.3420
     10  OXT        2.5140    0.0480   -1.3870 O.co2   1  GLN1       -0.2483
     11  H3         0.2510   -3.2610   -1.3870 H       1  GLN1       -0.0889
     12  HA        -0.0830   -0.6150   -2.3100 H       1  GLN1        0.0198
     13  HB1        0.0020   -0.9340    0.7610 H       1  GLN1        0.0259
     14  HB2       -1.4040   -0.4110   -0.1640 H       1  GLN1        0.0259
     15  HG1       -0.1500    1.6930   -0.8960 H       1  GLN1        0.0358
     16  HG2        1.2550    1.1850    0.0080 H       1  GLN1        0.0358
     17 HE21       -1.2490    1.9210    2.9550 H       1  GLN1        0.1449
     18 HE22       -1.2620    0.3590    1.9670 H       1  GLN1        0.1449
     19  H1        -0.8900   -2.5510   -0.5620 H       1  GLN1       -0.0889
     20  H2        -0.9220   -2.5550   -2.1880 H       1  GLN1       -0.0889
@<TRIPOS>BOND
     1     9    10    1
     2     2     4    1
     3     2     9    1
     4     2    12    1
     5     4     5    1
     6     4    13    1
     7     4    14    1
     8     6     7   am
     9     6     8    2
    10     5     6    1
    11     5    15    1
    12     5    16    1
    13     1    19    1
    14     1    20    1
    15     1     2    1
    16     1    11    1
    17     7    18    1
    18     7    17    1
    19     3     9    2
