@<TRIPOS>MOLECULE
CP24.pdb
23 23 1 0 0
SMALL
AMBER ff99SB


@<TRIPOS>ATOM
      1 N          22.1880  -19.5900   47.7520 N.4       1 CP24   -0.8356
      2 CA         21.5330  -19.2300   49.0070 C.3       1 CP24   -0.0735
      3 C          20.1970  -19.9190   49.1360 C.2       1 CP24    0.9376
      4 O          19.7650  -20.6780   48.2650 O.co2     1 CP24   -0.8013
      5 CB         21.2900  -17.6940   49.0850 C.3       1 CP24   -0.0511
      6 CG         22.5350  -16.7980   49.0580 C.ar      1 CP24   -0.1063
      7 CD1        23.2500  -16.5680   50.2370 C.ar      1 CP24    0.0234
      8 CD2        22.9570  -16.2010   47.8660 C.ar      1 CP24   -0.1400
      9 CE1        24.3720  -15.7450   50.2260 C.ar      1 CP24   -0.1180
     10 CE2        24.0800  -15.3790   47.8570 C.ar      1 CP24   -0.1210
     11 CZ         24.7860  -15.1510   49.0350 C.ar      1 CP24    0.0234
     12 CLZ        26.2140  -14.1050   49.0220 Cl        1 CP24   -0.0704
     13 OXT        19.5570  -19.7380   50.1450 O.co2     1 CP24   -0.7043
     14 CLD        22.7270  -17.3260   51.7490 Cl        1 CP24   -0.0614
     15 HN1        23.0780  -19.1170   47.6880 H         1 CP24    0.4238
     16 HN2        22.3350  -20.5890   47.7240 H         1 CP24    0.4248
     17 HN3        21.6040  -19.3140   46.9760 H         1 CP24    0.4848
     18 HA         22.1680  -19.5580   49.8510 H         1 CP24    0.0967
     19 HB1        20.7270  -17.4530   50.0080 H         1 CP24    0.1257
     20 HB2        20.5970  -17.3900   48.2730 H         1 CP24    0.0757
     21 HD2        22.4110  -16.3670   46.9470 H         1 CP24    0.1430
     22 HE1        24.9210  -15.5670   51.1390 H         1 CP24    0.1680
     23 HE2        24.4030  -14.9170   46.9360 H         1 CP24    0.1560
@<TRIPOS>BOND
     1    3    2 1
     2    3    4 2
     3    3   13 1
     4    2    5 1
     5    2   18 1
     6    2    1 1
     7    5    6 1
     8    5   19 1
     9    5   20 1
    10    7    9 ar
    11    7    6 ar
    12    7   14 1
    13    8   10 ar
    14    8    6 ar
    15    8   21 1
    16    9   11 ar
    17    9   22 1
    18   10   11 ar
    19   10   23 1
    20   12   11 1
    21   15    1 1
    22   16    1 1
    23   17    1 1
@<TRIPOS>SUBSTRUCTURE
     1 CP24     2 RESIDUE           4 A     CP24     0 ROOT
