@<TRIPOS>MOLECULE
TEZA.mol2
18 18 1 0 0
SMALL
AMBER ff99SB


@<TRIPOS>ATOM
      1 N          -1.1128   -2.9380   -1.6800 N.4       1 TEZA   -0.8186
      2 CA         -1.1057   -1.5003   -1.4492 C.3       1 TEZA   -0.1115
      3 O           1.1121   -1.1727   -2.0358 O.co2     1 TEZA   -0.7803
      4 CB         -0.8785   -1.1560    0.0480 C.3       1 TEZA    0.0583
      5 C          -0.0614   -1.0849   -2.3490 C.2       1 TEZA    0.9476
      6 OXT        -0.3266   -0.8674   -3.5176 O.co2     1 TEZA   -0.7023
      7 NG         -1.9367   -1.6708    0.8560 N.ar      1 TEZA    0.0171
      8 ND2        -1.9377   -2.8406    1.4086 N.ar      1 TEZA   -0.5718
      9 CE2        -3.1120   -2.9282    2.0404 C.ar      1 TEZA    0.4959
     10 NE1        -3.7925   -1.7927    1.8476 N.ar      1 TEZA   -0.3670
     11 ND1        -3.0417   -1.0415    1.1116 N.ar      1 TEZA    0.0500
     12 HA         -2.0550   -1.0769   -1.7773 H         1 TEZA    0.1047
     13 HB1        -0.8370   -0.0728    0.1625 H         1 TEZA    0.1547
     14 HB2         0.0667   -1.5882    0.3763 H         1 TEZA    0.0817
     15 HE2        -3.4555   -3.7770    2.6131 H         1 TEZA    0.0891
     16 H1         -1.8169   -3.3694   -1.0983 H         1 TEZA    0.4298
     17 H2         -1.3200   -3.1218   -2.6513 H         1 TEZA    0.4838
     18 H3         -0.2064   -3.3202   -1.4509 H         1 TEZA    0.4358
@<TRIPOS>BOND
     1    3    5 2
     2    5    2 1
     3    5    6 1
     4    2    1 1
     5    2    4 1
     6    4    7 1
     7   11    7 ar
     8    8    7 ar
     9    8    9 ar
    10    9   10 ar
    11   10   11 ar
    12   12    2 1
    13   13    4 1
    14   14    4 1
    15   15    9 1
    16   16    1 1
    17   17    1 1
    18   18    1 1
@<TRIPOS>SUBSTRUCTURE
     1 TEZA     2 RESIDUE           4 A     TEZA     0 ROOT
