@<TRIPOS>MOLECULE
ALO.pdb
17 16 1 0 0
SMALL
AMBER ff99SB


@<TRIPOS>ATOM
      1 N          -0.5210   -2.0020   -0.7960 N.4       1 ALO1       -0.8226
      2 CA          0.0970   -0.6800   -0.7960 C.3       1 ALO1       -0.1265
      3 C           1.6310   -0.7900   -0.7960 C.2       1 ALO1        0.9366
      4 O           2.1720   -1.8590   -0.7960 O.co2     1 ALO1       -0.7923
      5 CB         -0.3990    0.1590    0.4290 C.3       1 ALO1        0.1641
      6 CG2        -1.9270    0.3350    0.5650 C.3       1 ALO1       -0.1201
      7 OG1         0.2380    1.4220    0.2760 O.3       1 ALO1       -0.6038
      8 OXT         2.4230    0.4000   -0.7960 O.co2     1 ALO1       -0.7283
      9 HA         -0.1970   -0.1580   -1.7250 H         1 ALO1        0.1047
     10 HB         -0.0190   -0.3190    1.3580 H         1 ALO1        0.0557
     11 HG1         1.1830    1.2450    0.2700 H         1 ALO1        0.4580
     12 HG21       -2.2000    0.9180    1.4640 H         1 ALO1        0.0797
     13 HG22       -2.3680    0.8800   -0.2900 H         1 ALO1        0.0357
     14 HG23       -2.4470   -0.6380    0.6350 H         1 ALO1        0.0187
     15 H1         -1.1030   -2.0420   -1.6210 H         1 ALO1        0.4198
     16 H2         -1.1350   -2.0440    0.0050 H         1 ALO1        0.4288
     17 H3          0.0660   -2.9090   -0.7960 H         1 ALO1        0.4878
@<TRIPOS>BOND
     1    3    2 1
     2    3    4 2
     3    3    8 1
     4    2    5 1
     5    2    9 1
     6    2    1 1
     7    5    6 1
     8    5   10 1
     9    5    7 1
    10    6   12 1
    11    6   13 1
    12    6   14 1
    13   15    1 1
    14   16    1 1
    15   17    1 1
    16   11    7 1
@<TRIPOS>SUBSTRUCTURE
     1 ALO1        2 RESIDUE           4 A     ALO     0 ROOT
