@<TRIPOS>MOLECULE
LDO.pdb
23 22 1 0 0
SMALL
AMBER ff99SB


@<TRIPOS>ATOM
      1 N          -0.2593   -2.4440    0.0326 N.4       1 LDO1       -0.8386
      2 CA         -1.3439   -1.4902   -0.2382 C.3       1 LDO1       -0.0735
      3 CB         -0.8539   -0.4271   -1.2214 C.3       1 LDO1       -0.0964
      4 CG          0.3388    0.3153   -0.6192 C.3       1 LDO1       -0.0864
      5 CD          0.8296    1.3788   -1.6035 C.3       1 LDO1       -0.0854
      6 CE          2.0231    2.1219   -1.0014 C.3       1 LDO1        0.1334
      7 OZ          2.4806    3.1141   -1.9199 O.3       1 LDO1       -0.5978
      8 C          -2.5190   -2.2216   -0.8307 C.2       1 LDO1        0.9366
      9 O          -2.3405   -3.2118   -1.4988 O.co2     1 LDO1       -0.8023
     10 OXT        -3.7664   -1.7728   -0.6191 O.co2     1 LDO1       -0.7083
     11 HN1        -0.0128   -2.8609   -0.8519 H         1 LDO1        0.4878
     12 HN2         0.5373   -1.8996    0.3289 H         1 LDO1        0.4228
     13 HA         -1.6468   -1.0116    0.6932 H         1 LDO1        0.0887
     14 HB1        -0.5510   -0.9057   -2.1528 H         1 LDO1        0.0567
     15 HB2        -1.6573    0.2803   -1.4229 H         1 LDO1        0.1187
     16 HG1         0.0366    0.7946    0.3121 H         1 LDO1        0.0487
     17 HG2         1.1438   -0.3923   -0.4184 H         1 LDO1        0.0087
     18 HD1         1.1317    0.8998   -2.5339 H         1 LDO1        0.0597
     19 HD2         0.0252    2.0861   -1.8030 H         1 LDO1        0.0687
     20 HE1         1.7202    2.6005   -0.0700 H         1 LDO1        0.0237
     21 HE2         2.8274    1.4136   -0.8004 H         1 LDO1        0.0147
     22 HOZ         3.2316    3.5580   -1.5030 H         1 LDO1        0.4020
     23 HN3         -0.5237   -3.1361    0.7190 H         1 LDO1        0.4188
@<TRIPOS>BOND
     1    1    2 1
     2    1   11 1
     3    1   12 1
     4    2    3 1
     5    2    8 1
     6    2   13 1
     7    3    4 1
     8    3   14 1
     9    3   15 1
    10    4    5 1
    11    4   16 1
    12    4   17 1
    13    5    6 1
    14    5   18 1
    15    5   19 1
    16    6    7 1
    17    6   20 1
    18    6   21 1
    19    7   22 1
    20    8    9 2
    21    8   10 1
    22   23    1 1
@<TRIPOS>SUBSTRUCTURE
     1 LDO1        2 RESIDUE           4 A     LDO     0 ROOT
