@<TRIPOS>MOLECULE
CSA.pdb
22 21 1 0 0
SMALL
AMBER ff99SB


@<TRIPOS>ATOM
      1 N           2.5912   -0.9385    2.0845 N.4       1 CSA1       -0.8266
      2 CA          2.7493    0.2528    1.2402 C.3       1 CSA1       -0.0775
      3 CB          1.3926    0.9339    1.0599 C.3       1 CSA1       -0.0153
      4 C           3.7112    1.2099    1.8951 C.2       1 CSA1        0.9386
      5 SG          0.2361   -0.2168    0.2714 S.3       1 CSA1       -0.3002
      6 CD         -1.2431    0.8277    0.1857 C.3       1 CSA1       -0.1413
      7 CE         -2.3681    0.0563   -0.4531 C.2       1 CSA1        0.5941
      8 OE         -2.1904   -1.0818   -0.8139 O.2       1 CSA1       -0.5741
      9 CZ         -3.7147    0.7047   -0.6420 C.3       1 CSA1       -0.2031
     10 O           3.7976    1.2480    3.0994 O.co2     1 CSA1       -0.7943
     11 OXT         4.4700    2.0208    1.1419 O.co2     1 CSA1       -0.7143
     12 H3          2.2303   -0.6179    2.9704 H         1 CSA1        0.4748
     13 H2          1.8676   -1.4992    1.6623 H         1 CSA1        0.4528
     14 HA          3.1392   -0.0414    0.2656 H         1 CSA1        0.0967
     15 HB1         1.5095    1.8185    0.4325 H         1 CSA1        0.1277
     16 HB2         1.0027    1.2303    2.0338 H         1 CSA1        0.0887
     17 HD1        -1.0266    1.7157   -0.4072 H         1 CSA1        0.1107
     18 HD2        -1.5344    1.1277    1.1931 H         1 CSA1        0.1067
     19 HZ1        -4.3951   -0.0019   -1.1166 H         1 CSA1        0.0797
     20 HZ2        -4.1155    0.9993    0.3285 H         1 CSA1        0.0697
     21 HZ3        -3.6088    1.5873   -1.2718 H         1 CSA1        0.0767
     22 H1          3.4569   -1.4484    2.1888 H         1 CSA1        0.4308
@<TRIPOS>BOND
     1    4    2 1
     2    4   10 2
     3    4   11 1
     4    9    7 1
     5    9   19 1
     6    9   20 1
     7    9   21 1
     8    7    6 1
     9    7    8 2
    10    6    5 1
    11    6   18 1
    12    6   17 1
    13    2    1 1
    14    2    3 1
    15    2   14 1
    16    3    5 1
    17    3   15 1
    18    3   16 1
    19   12    1 1
    20   22    1 1
    21   13    1 1
@<TRIPOS>SUBSTRUCTURE
     1 CSA1        2 RESIDUE           4 A     CSA     0 ROOT
