@<TRIPOS>MOLECULE
CHG.mol2
26 26 1 0 0
SMALL
AMBER ff99SB


@<TRIPOS>ATOM
      1 CA          2.0615   -2.2986    2.2901 C.3       1 CHG   -0.0695
      2 C           0.9288   -3.1830    2.4441 C.2       1 CHG    0.9326
      3 CB          2.2110   -1.6386    0.8737 C.3       1 CHG   -0.0657
      4 O           0.7183   -4.1028    1.6674 O.co2     1 CHG   -0.8043
      5 OXT         0.2346   -3.1109    3.4425 O.co2     1 CHG   -0.7133
      6 N           3.1679   -3.1890    2.6408 N.4       1 CHG   -0.8326
      7 CG1         3.5250   -0.7988    0.7615 C.3       1 CHG   -0.0864
      8 CD1         3.6828   -0.1173   -0.6250 C.3       1 CHG   -0.0724
      9 CE          2.4569    0.7655   -0.9690 C.3       1 CHG   -0.0794
     10 CD2         1.1376   -0.0429   -0.8726 C.3       1 CHG   -0.0784
     11 CG2         0.9838   -0.7388    0.5084 C.3       1 CHG   -0.0754
     12 HA          1.9950   -1.5098    3.0394 H         1 CHG    0.0897
     13 HB          2.2656   -2.4407    0.1376 H         1 CHG    0.0717
     14 HG11        4.3763   -1.4598    0.9242 H         1 CHG    0.0047
     15 HG12        3.5209   -0.0306    1.5348 H         1 CHG    0.0427
     16 HD11        4.5760    0.5073   -0.6125 H         1 CHG    0.0397
     17 HD12        3.7952   -0.8858   -1.3898 H         1 CHG    0.0437
     18 HE1         2.4135    1.6009   -0.2702 H         1 CHG    0.0407
     19 HE2         2.5669    1.1517   -1.9823 H         1 CHG    0.0437
     20 HD21        1.1330   -0.8039   -1.6530 H         1 CHG    0.0447
     21 HD22        0.2950    0.6310   -1.0275 H         1 CHG    0.0497
     22 HG21        0.8743    0.0286    1.2747 H         1 CHG    0.0437
     23 HG22        0.0851   -1.3555    0.4951 H         1 CHG    0.0977
     24 H1          4.0406   -2.6852    2.5729 H         1 CHG    0.4178
     25 H2          3.1823   -3.9740    2.0055 H         1 CHG    0.4818
     26 H3          3.0446   -3.5230    3.5860 H         1 CHG    0.4318
@<TRIPOS>BOND
     1    1    2 1
     2    1    3 1
     3    2    4 2
     4    2    5 1
     5    1    6 1
     6    3    7 1
     7    3   11 1
     8    7    8 1
     9    8    9 1
    10    9   10 1
    11   10   11 1
    12   12    1 1
    13   13    3 1
    14   14    7 1
    15   15    7 1
    16   16    8 1
    17   17    8 1
    18   18    9 1
    19   19    9 1
    20   20   10 1
    21   21   10 1
    22   22   11 1
    23   23   11 1
    24   24    6 1
    25   25    6 1
    26   26    6 1
@<TRIPOS>SUBSTRUCTURE
     1 CHG     1 RESIDUE           4 A     CHG     0 ROOT
