@<TRIPOS>MOLECULE
TPO.pdb
21 20 1 0 0
SMALL
AMBER ff99SB


@<TRIPOS>ATOM
      1 N           0.7600   -2.5950    0.8110 N.4       1 TPO       -0.8386
      2 CA          0.9480   -1.2520    1.3730 C.3       1 TPO       -0.0495
      3 C          -0.3180   -0.8110    2.0560 C.2       1 TPO        0.9216
      4 O          -1.3880   -1.2060    1.6600 O.co2     1 TPO       -0.8343
      5 CB          1.2900   -0.2720    0.2480 C.3       1 TPO        0.1891
      6 CG2         1.4860    1.1280    0.8320 C.3       1 TPO       -0.1071
      7 OG1         2.4930   -0.6910   -0.3980 O.3       1 TPO       -0.6042
      8 P           2.1220   -0.9580   -1.9410 P.3       1 TPO        1.4198
      9 O1P         1.6070    0.2900   -2.5490 O.co2     1 TPO       -0.8115
     10 O2P         3.4400   -1.4350   -2.7340 O.co2     1 TPO       -0.8175
     11 O3P         0.9960   -2.1040   -2.0330 O.3       1 TPO       -0.8094
     12 OXT        -0.2590    0.0240    3.1060 O.co2     1 TPO       -0.7623
     13 HA          1.7640   -1.2720    2.0960 H         1 TPO        0.0787
     14 HB          0.4750   -0.2530   -0.4760 H         1 TPO        0.0937
     15 HG21        2.2990    1.1100    1.5570 H         1 TPO        0.0317
     16 HG22        1.7290    1.8250    0.0330 H         1 TPO        0.0337
     17 HG23        0.5680    1.4490    1.3260 H         1 TPO        0.0787
     18 HOP3        1.3710   -2.8970   -1.6280 H         1 TPO        0.4350
     19 H1          0.5820   -3.2850    1.5260 H         1 TPO        0.4078
     20 H2         -0.0000   -2.5290    0.1500 H         1 TPO        0.4648
     21 H3          1.5900   -2.8060    0.2780 H         1 TPO        0.4788
@<TRIPOS>BOND
     1    3    2 1
     2    3    4 2
     3    3   12 2
     4    2    5 1
     5    2   13 1
     6    2    1 1
     7    5    6 1
     8    5   14 1
     9    5    7 1
    10    6   15 1
    11    6   16 1
    12    6   17 1
    13   19    1 1
    14   20    1 1
    15   21    1 1
    16   18   11 1
    17    9    8 1
    18   10    8 1
    19   11    8 1
    20    7    8 1
@<TRIPOS>SUBSTRUCTURE
     1 TPO        2 RESIDUE           4 A     TPO     0 ROOT
