@<TRIPOS>MOLECULE
PBF.pdb
35 36 1 0 0
SMALL
AMBER ff99SB


@<TRIPOS>ATOM
      1 N          22.1880  -19.5900   47.7520 N.4       1 PBF   -0.8356
      2 CA         21.5330  -19.2300   49.0070 C.3       1 PBF   -0.0715
      3 C          20.1970  -19.9190   49.1360 C.2       1 PBF    0.9376
      4 O          19.7650  -20.6780   48.2650 O.co2     1 PBF   -0.7993
      5 CB         21.2900  -17.6940   49.0850 C.3       1 PBF   -0.0551
      6 CG         22.5350  -16.7980   49.0580 C.ar      1 PBF   -0.0903
      7 CD1        23.2500  -16.5680   50.2370 C.ar      1 PBF   -0.1350
      8 CD2        22.9570  -16.2010   47.8660 C.ar      1 PBF   -0.1690
      9 CE1        24.3720  -15.7450   50.2260 C.ar      1 PBF   -0.0890
     10 CE2        24.0800  -15.3790   47.8570 C.ar      1 PBF   -0.0770
     11 CZ         24.7860  -15.1510   49.0350 C.ar      1 PBF   -0.1626
     12 OXT        19.5570  -19.7380   50.1450 O.co2     1 PBF   -0.7103
     13 CJ         26.5610  -13.1830   49.6600 C.ar      1 PBF   -0.1746
     14 CH1        27.9660  -13.0940   49.9410 C.ar      1 PBF   -0.0750
     15 CM1        28.5550  -12.0340   50.6540 C.ar      1 PBF   -0.1430
     16 CL         27.7570  -10.9920   51.1340 C.ar      1 PBF   -0.0990
     17 CM2        26.3800  -11.0190   50.8910 C.ar      1 PBF   -0.1430
     18 CH2        25.8080  -12.0840   50.1690 C.ar      1 PBF   -0.0900
     19 CF         26.0500  -14.3120   48.9220 C.2       1 PBF    0.5883
     20 OF         26.7740  -14.6240   47.9790 O.2       1 PBF   -0.5281
     21 HN1        23.0780  -19.1170   47.6880 H         1 PBF    0.4268
     22 HN2        22.3350  -20.5890   47.7240 H         1 PBF    0.4268
     23 HN3        21.6040  -19.3140   46.9760 H         1 PBF    0.4838
     24 HA         22.1680  -19.5580   49.8510 H         1 PBF    0.0907
     25 HB1        20.7270  -17.4530   50.0080 H         1 PBF    0.1187
     26 HB2        20.5970  -17.3900   48.2730 H         1 PBF    0.0727
     27 HD1        22.9310  -17.0300   51.1590 H         1 PBF    0.1490
     28 HD2        22.4110  -16.3670   46.9470 H         1 PBF    0.1350
     29 HE2        24.4030  -14.9170   46.9360 H         1 PBF    0.1550
     30 HE1        24.9210  -15.5670   51.1390 H         1 PBF    0.1500
     31 HH1        28.6076  -13.8863   49.5846 H         1 PBF    0.1530
     32 HM1        29.6205  -12.0255   50.8299 H         1 PBF    0.1400
     33 HL         28.1985  -10.1755   51.6861 H         1 PBF    0.1380
     34 HM2        25.7531  -10.2201   51.2585 H         1 PBF    0.1390
     35 HH2        24.7428  -12.0677   49.9913 H         1 PBF    0.1420
@<TRIPOS>BOND
     1    3    2 1
     2    3    4 2
     3    3   12 1
     4    2    5 1
     5    2   24 1
     6    2    1 1
     7    5    6 1
     8    5   25 1
     9    5   26 1
    10    7    9 ar
    11    7    6 ar
    12    7   27 1
    13    8   10 ar
    14    8    6 ar
    15    8   28 1
    16    9   11 ar
    17    9   30 1
    18   10   11 ar
    19   10   29 1
    20   19   13 1
    21   19   11 1
    22   19   20 2
    23   14   13 ar
    24   14   15 ar
    25   18   13 ar
    26   18   17 ar
    27   15   16 ar
    28   17   16 ar
    29   21    1 1
    30   22    1 1
    31   23    1 1
    32   31   14 1
    33   32   15 1
    34   33   16 1
    35   34   17 1
    36   35   18 1
@<TRIPOS>SUBSTRUCTURE
     1 PBF     2 RESIDUE           4 A     PBF     0 ROOT
