@<TRIPOS>MOLECULE
AZDA.pdb
15 14 1 0 0
SMALL
AMBER ff99SB


@<TRIPOS>ATOM
      1 N          -1.3075    2.6378    1.0766 N.4       1 AZDA1       -0.8246
      2 CA          0.0665    2.2749    0.7512 C.3       1 AZDA1       -0.0965
      3 C           0.5854    3.5076    0.2165 C.2       1 AZDA1        0.9406
      4 O          -0.1604    4.3906   -0.1805 O.co2     1 AZDA1       -0.7923
      5 CB          0.1649    1.0650   -0.2206 C.3       1 AZDA1        0.1128
      6 NG         -0.4287   -0.0880    0.2823 N.2       1 AZDA1       -0.4572
      7 ND         -0.0023   -0.7260    1.1592 N.2       1 AZDA1        0.2170
      8 NE          0.4251   -1.3660    2.0286 N.1       1 AZDA1       -0.0280
      9 OXT         1.7731    3.7549    0.3115 O.co2     1 AZDA1       -0.7123
     10 HA          0.5993    2.0356    1.6718 H         1 AZDA1        0.0887
     11 HB1        -0.3287    1.3302   -1.1557 H         1 AZDA1        0.0907
     12 HB2         1.2161    0.8607   -0.4239 H         1 AZDA1        0.1197
     13 H1         -1.7830    1.8376    1.4682 H         1 AZDA1        0.4358
     14 H2         -1.3057    3.3907    1.7495 H         1 AZDA1        0.4208
     15 H3         -1.7843    2.9368    0.2385 H         1 AZDA1        0.4838
@<TRIPOS>BOND
     1    3    2 1
     2    3    4 2
     3    3    9 2
     4    2    5 1
     5    2   10 1
     6    2    1 1
     7    5   11 1
     8    5   12 1
     9    5    6 1
    10   13    1 1
    11   14    1 1
    12   15    1 1
    13    7    8 2
    14    7    6 2
@<TRIPOS>SUBSTRUCTURE
     1 AZDA1        2 RESIDUE           4 A     AZDA     0 ROOT
