@<TRIPOS>MOLECULE
PRO.pdb
 17 17 0 0 0
SMALL
GASTEIGER

@<TRIPOS>ATOM
      1  N         47.5090   41.1150  -84.7960 N.4     1  PRO1        0.3880
      2  CA        48.1850   42.4090  -84.7960 C.3     1  PRO1        0.0232
      3  C         49.7130   42.2080  -84.7970 C.2     1  PRO1        0.3425
      4  O         50.2160   41.1180  -84.8070 O.co2   1  PRO1       -0.2482
      5  CB        47.5280   43.1560  -83.6960 C.3     1  PRO1       -0.0572
      6  CG        47.0090   42.1620  -82.6840 C.3     1  PRO1       -0.0694
      7  CD        46.5750   40.9600  -83.4710 C.3     1  PRO1       -0.0924
      8  OXT       50.5610   43.3600  -84.7840 O.co2   1  PRO1       -0.2482
      9  HA        47.9240   42.9100  -85.7280 H       1  PRO1        0.0203
     10  HB1       46.6990   43.7420  -84.0930 H       1  PRO1        0.0254
     11  HB2       48.2510   43.8190  -83.2210 H       1  PRO1        0.0254
     12  HG1       47.7970   41.8900  -81.9820 H       1  PRO1        0.0247
     13  HG2       46.1590   42.5840  -82.1480 H       1  PRO1        0.0247
     14  HD1       45.5150   41.0040  -83.7190 H       1  PRO1        0.0054
     15  HD2       46.8110   40.0400  -82.9350 H       1  PRO1        0.0054
     16  H2        46.8930   41.1000  -85.5970 H       1  PRO1       -0.0847
     17  H3        48.0550   40.1830  -84.7960 H       1  PRO1       -0.0847
@<TRIPOS>BOND
     1     9     2    1
     2    16     1    1
     3     4     3   ar
     4     3     2    1
     5     3     8   ar
     6    17     1    1
     7     2     1    1
     8     2     5    1
     9     1     7    1
    10    10     5    1
    11    14     7    1
    12     5    11    1
    13     5     6    1
    14     7    15    1
    15     7     6    1
    16     6    13    1
    17     6    12    1
