@<TRIPOS>MOLECULE
4FW.pdb
27 28 1 0 0
SMALL
AMBER ff99SB


@<TRIPOS>ATOM
      1 N           1.1222    3.7043    7.4750 N.4       1 4FW1       -0.8336
      2 CA          1.0775    2.2663    7.5592 C.3       1 4FW1       -0.0675
      3 C           2.4774    1.6767    7.6415 C.2       1 4FW1        0.9336
      4 O           3.4408    2.1634    7.0588 O.co2     1 4FW1       -0.8103
      5 CB          0.2936    1.6726    6.3649 C.3       1 4FW1       -0.0192
      6 CG         -1.0993    2.1501    6.2602 C.ar      1 4FW1       -0.1752
      7 CD1        -1.5154    3.2663    5.5715 C.ar      1 4FW1       -0.0820
      8 CD2        -2.2509    1.5469    6.8412 C.ar      1 4FW1       -0.1260
      9 CE2        -3.3495    2.3322    6.4831 C.ar      1 4FW1       -0.0073
     10 CE3        -2.4624    0.4072    7.6415 C.ar      1 4FW1        0.1659
     11 NE1        -2.8734    3.3685    5.7125 N.ar      1 4FW1       -0.2354
     12 CZ2        -4.6555    2.0304    6.8855 C.ar      1 4FW1       -0.1570
     13 CZ3        -3.7634    0.0939    8.0523 C.ar      1 4FW1       -0.1900
     14 CH2        -4.8425    0.8939    7.6796 C.ar      1 4FW1       -0.0850
     15 OXT         2.5852    0.5709    8.4156 O.co2     1 4FW1       -0.7093
     16 FE3        -1.4405   -0.3772    8.0104 F         1 4FW1       -0.1329
     17 HA          0.5467    2.0004    8.4739 H         1 4FW1        0.0997
     18 HB1         0.8169    1.9396    5.4461 H         1 4FW1        0.0717
     19 HB2         0.2851    0.5870    6.4581 H         1 4FW1        0.1117
     20 HD1        -0.8825    3.9434    5.0174 H         1 4FW1        0.1770
     21 HE1        -3.4435    4.0985    5.3095 H         1 4FW1        0.3057
     22 HZ2        -5.4892    2.6517    6.5944 H         1 4FW1        0.1420
     23 HZ3        -3.9352   -0.7790    8.6637 H         1 4FW1        0.1530
     24 HH2        -5.8369    0.6339    8.0099 H         1 4FW1        0.1420
     25 H1          0.1811    4.0681    7.4217 H         1 4FW1        0.4258
     26 H2          1.5800    4.0755    8.2950 H         1 4FW1        0.4238
     27 H3          1.6353    3.9772    6.6499 H         1 4FW1        0.4808
@<TRIPOS>BOND
     1    3    2 1
     2    3    4 2
     3    3   15 1
     4    2    5 1
     5    2   17 1
     6    2    1 1
     7    5    6 1
     8    5   18 1
     9    5   19 1
    10    7    6 ar
    11    7   20 1
    12    7   11 ar
    13    8    9 ar
    14    8   10 ar
    15    8    6 ar
    16    9   12 ar
    17    9   11 ar
    18   10   13 ar
    19   10   16 1
    20   14   12 ar
    21   14   13 ar
    22   14   24 1
    23   12   22 1
    24   13   23 1
    25   25    1 1
    26   26    1 1
    27   27    1 1
    28   21   11 1
@<TRIPOS>SUBSTRUCTURE
     1 4FW1        2 RESIDUE           4 A     4FW     0 ROOT
