@<TRIPOS>MOLECULE
SER.pdb
 14 13 0 0 0
SMALL
GASTEIGER

@<TRIPOS>ATOM
      1  N          1.0520   -1.5500   -0.7110 N.4     1  SER1        0.3886
      2  CA         1.6820   -0.2330   -0.7110 C.3     1  SER1        0.0440
      3  O          3.7540   -1.4470   -0.7110 O.co2   1  SER1       -0.2482
      4  CB         1.1790    0.6190    0.4810 C.3     1  SER1        0.0415
      5  OG         1.6440    0.1360    1.7460 O.3     1  SER1       -0.3961
      6  C          3.2150   -0.3740   -0.7110 C.2     1  SER1        0.3442
      7  OXT        4.0210    0.8070   -0.7110 O.co2   1  SER1       -0.2482
      8  H3         1.6300   -2.4620   -0.7110 H       1  SER1       -0.0888
      9  HA         1.4020    0.2790   -1.6500 H       1  SER1        0.0221
     10  HB1        0.0740    0.6790    0.4920 H       1  SER1        0.0546
     11  HB2        1.5200    1.6660    0.3610 H       1  SER1        0.0546
     12  HG         1.2800   -0.7440    1.8690 H       1  SER1        0.2093
     13  H1         0.4700   -1.5850    0.1140 H       1  SER1       -0.0888
     14  H2         0.4370   -1.5870   -1.5110 H       1  SER1       -0.0888
@<TRIPOS>BOND
     1     6     7    1
     2     2     4    1
     3     2     6    1
     4     2     9    1
     5     4     5    1
     6     4    10    1
     7     4    11    1
     8     1     2    1
     9     1     8    1
    10     1    14    1
    11     1    13    1
    12     3     6    2
    13     5    12    1
