@<TRIPOS>MOLECULE
ARG.pdb
 27 26 0 0 0
SMALL
GASTEIGER

@<TRIPOS>ATOM
      1  N         46.7990   40.0100  -80.7230 N.4     1  ARG1        0.3871
      2  CA        47.3400   40.6890  -81.8970 C.3     1  ARG1        0.0206
      3  O         49.4870   40.1790  -80.9540 O.co2   1  ARG1       -0.2483
      4  CB        46.7580   42.1300  -81.9550 C.3     1  ARG1       -0.0531
      5  CG        47.0090   42.9000  -83.2820 C.3     1  ARG1       -0.0232
      6  CD        46.4330   44.3250  -83.2410 C.3     1  ARG1        0.0645
      7  NE        46.6850   45.0060  -84.5450 N.pl3   1  ARG1       -0.2787
      8  CZ        46.3240   46.2500  -84.8450 C.cat   1  ARG1        0.3410
      9  NH1       45.7000   47.0400  -84.0170 N.pl3   1  ARG1       -0.2919
     10  NH2       46.6060   46.7050  -86.0250 N.pl3   1  ARG1       -0.2919
     11  C         48.8790   40.6980  -81.8490 C.2     1  ARG1        0.3420
     12  OXT       49.6030   41.3430  -82.8990 O.co2   1  ARG1       -0.2483
     13  H3        47.4050   39.6120  -79.9970 H       1  ARG1       -0.0889
     14  HA        47.0320   40.1190  -82.7940 H       1  ARG1        0.0198
     15 2HB        47.1570   42.7100  -81.0970 H       1  ARG1        0.0255
     16 3HB        45.6650   42.0880  -81.7720 H       1  ARG1        0.0255
     17 2HG        46.5690   42.3270  -84.1240 H       1  ARG1        0.0295
     18 3HG        48.0970   42.9510  -83.4920 H       1  ARG1        0.0295
     19 2HD        46.9010   44.8870  -82.4030 H       1  ARG1        0.0655
     20 3HD        45.3450   44.2790  -83.0200 H       1  ARG1        0.0655
     21  HE        47.1690   44.5220  -85.3080 H       1  ARG1        0.2578
     22 1HH1       45.5090   46.6210  -83.1040 H       1  ARG1        0.2545
     23 2HH1       45.4560   47.9830  -84.3240 H       1  ARG1        0.2545
     24 1HH2       47.0960   46.0720  -86.6600 H       1  ARG1        0.2545
     25 2HH2       46.3190   47.6620  -86.2370 H       1  ARG1        0.2545
     26  H1        46.2380   39.2460  -81.0720 H       1  ARG1       -0.0889
     27  H2        46.1720   40.6570  -80.2670 H       1  ARG1       -0.0889
@<TRIPOS>BOND
     1    11    12    1
     2     2     4    1
     3     2    11    1
     4     2    14    1
     5     4     5    1
     6     4    15    1
     7     4    16    1
     8     6     7    1
     9     6    19    1
    10     6    20    1
    11     5     6    1
    12     5    18    1
    13     5    17    1
    14     8     9    2
    15     8    10    1
    16     1     2    1
    17     1    13    1
    18     1    27    1
    19     1    26    1
    20     7     8    1
    21     7    21    1
    22     9    22    1
    23     9    23    1
    24    10    24    1
    25    10    25    1
    26     3    11    2
