@<TRIPOS>MOLECULE
TYQ.pdb
27 27 1 0 0
SMALL
AMBER ff99SB


@<TRIPOS>ATOM
      1 N          -1.1754   -1.8272    0.5845 N.4       1 TYQ1       -0.8306
      2 CA         -1.8972   -0.7557   -0.1142 C.3       1 TYQ1       -0.0785
      3 C          -3.1403   -1.3188   -0.7515 C.2       1 TYQ1        0.9376
      4 O          -3.1611   -2.4682   -1.1215 O.co2     1 TYQ1       -0.7983
      5 CB         -0.9965   -0.1539   -1.1942 C.3       1 TYQ1       -0.0451
      6 CG          0.2456    0.4090   -0.5560 C.ar      1 TYQ1       -0.1903
      7 CD1         0.2694    1.7305   -0.1354 C.ar      1 TYQ1        0.1291
      8 CD2         1.3627   -0.3896   -0.3959 C.ar      1 TYQ1       -0.1550
      9 CE1         1.4103    2.2506    0.4571 C.ar      1 TYQ1       -0.2030
     10 CE2         2.5069    0.1277    0.1910 C.ar      1 TYQ1        0.0966
     11 CZ          2.5313    1.4526    0.6187 C.ar      1 TYQ1        0.1001
     12 OD1        -0.8301    2.5135   -0.2956 O.3       1 TYQ1       -0.5031
     13 NE2         3.6396   -0.6821    0.3540 N.pl3     1 TYQ1       -0.8022
     14 OH          3.6522    1.9633    1.1950 O.3       1 TYQ1       -0.5061
     15 OXT        -4.2243   -0.5459   -0.9085 O.co2     1 TYQ1       -0.7153
     16 H3         -0.3044   -1.4299    0.9049 H         1 TYQ1        0.4268
     17 H2         -0.9390   -2.5187   -0.1114 H         1 TYQ1        0.4828
     18 HA         -2.1748    0.0202    0.6006 H         1 TYQ1        0.0917
     19 HB1        -0.7190   -0.9291   -1.9078 H         1 TYQ1        0.0747
     20 HB2        -1.5320    0.6416   -1.7119 H         1 TYQ1        0.1077
     21 HD2         1.3434   -1.4166   -0.7269 H         1 TYQ1        0.1380
     22 HE1         1.4277    3.2789    0.7871 H         1 TYQ1        0.1580
     23 HD1        -0.7450    2.9409   -1.1597 H         1 TYQ1        0.4370
     24 HE21        4.4395   -0.3200    0.7656 H         1 TYQ1        0.4048
     25 HE22        3.6228   -1.6048    0.0561 H         1 TYQ1        0.3838
     26 HH          4.1907    2.3308    0.4818 H         1 TYQ1        0.4310
     27 H1         -1.7160   -2.2192    1.3423 H         1 TYQ1        0.4278
@<TRIPOS>BOND
     1    3    2 1
     2    3    4 2
     3    3   15 1
     4    2    1 1
     5    2    5 1
     6    2   18 1
     7    5    6 1
     8    5   19 1
     9    5   20 1
    10    7    6 ar
    11    7    9 ar
    12    7   12 1
    13    8   10 ar
    14    8    6 ar
    15    8   21 1
    16    9   11 ar
    17    9   22 1
    18   10   11 ar
    19   10   13 1
    20   11   14 1
    21   16    1 1
    22   27    1 1
    23   17    1 1
    24   26   14 1
    25   24   13 1
    26   25   13 1
    27   23   12 1
@<TRIPOS>SUBSTRUCTURE
     1 TYQ1        2 RESIDUE           4 A     TYQ     0 ROOT
