@<TRIPOS>MOLECULE
ILX.pdb
24 23 1 0 0
SMALL
AMBER ff99SB


@<TRIPOS>ATOM
      1 N          -0.0800    3.1610    0.4290 N.4       1 ILX1       -0.8266
      2 CA         -0.0060    2.0560    1.3850 C.3       1 ILX1       -0.0655
      3 C          -1.0890    2.2770    2.4300 C.2       1 ILX1        0.9306
      4 O          -1.4490    3.3660    2.8590 O.co2     1 ILX1       -0.7993
      5 CB          1.3930    1.8820    2.0430 C.3       1 ILX1       -0.0617
      6 CG1         2.5490    1.7170    1.0220 C.3       1 ILX1        0.1291
      7 CG2         1.3580    0.7370    3.0690 C.3       1 ILX1       -0.1031
      8 OG1         2.5090    2.7670    0.0560 O.3       1 ILX1       -0.6518
      9 CD1         3.9270    1.7290    1.6850 C.3       1 ILX1        0.0984
     10 OD1         4.9200    1.5320    0.6820 O.3       1 ILX1       -0.6228
     11 OXT        -1.6310    1.1060    2.8560 O.co2     1 ILX1       -0.7223
     12 HA         -0.2400    1.1350    0.8510 H         1 ILX1        0.0867
     13 HB          1.5930    2.7970    2.6000 H         1 ILX1        0.0867
     14 HG1         2.4220    0.7660    0.5050 H         1 ILX1        0.0437
     15 HG21        2.3430    0.6250    3.5230 H         1 ILX1        0.0347
     16 HG22        0.6260    0.9660    3.8430 H         1 ILX1        0.1047
     17 HG23        1.0810   -0.1910    2.5690 H         1 ILX1        0.0357
     18 HD11        3.9870    0.9280    2.4210 H         1 ILX1        0.0497
     19 HD12        4.0870    2.6890    2.1760 H         1 ILX1        0.0457
     20 HOD1        5.7900    1.5390    1.0870 H         1 ILX1        0.4180
     21 HOG1        1.7850    2.6140   -0.5550 H         1 ILX1        0.4410
     22 H1          0.6290    3.0420   -0.2800 H         1 ILX1        0.4418
     23 H2         -0.9920    3.1680   -0.0050 H         1 ILX1        0.4308
     24 H3          0.0700    4.0350    0.9120 H         1 ILX1        0.4748
@<TRIPOS>BOND
     1    3    2 1
     2    3    4 2
     3    3   11 2
     4    2    5 1
     5    2   12 1
     6    2    1 1
     7    5    6 1
     8    5    7 1
     9    5   13 1
    10    9    6 1
    11    9   18 1
    12    9   19 1
    13    9   10 1
    14    6   14 1
    15    6    8 1
    16    7   15 1
    17    7   16 1
    18    7   17 1
    19   22    1 1
    20   23    1 1
    21   24    1 1
    22   20   10 1
    23   21    8 1
@<TRIPOS>SUBSTRUCTURE
     1 ILX1        2 RESIDUE           4 A     ILX     0 ROOT
