@<TRIPOS>MOLECULE
HTR.pdb
28 29 1 0 0
SMALL
AMBER ff99SB


@<TRIPOS>ATOM
      1 N          -1.7461   -2.1403    1.4213 N.4       1 HTR1       -0.8216
      2 CA         -3.0196   -1.6724    0.8596 C.3       1 HTR1       -0.1175
      3 CB         -2.8017   -1.2134   -0.5827 C.3       1 HTR1        0.2433
      4 OH         -4.0406   -0.7585   -1.1295 O.3       1 HTR1       -0.6088
      5 CG         -1.7995   -0.0904   -0.6064 C.ar      1 HTR1       -0.2182
      6 CD1        -2.0676    1.2215   -0.5124 C.ar      1 HTR1       -0.0190
      7 NE1        -0.9055    1.9414   -0.5725 N.ar      1 HTR1       -0.2394
      8 CE2         0.1667    1.0881   -0.7102 C.ar      1 HTR1       -0.0303
      9 CZ2         1.5390    1.2846   -0.8155 C.ar      1 HTR1       -0.1330
     10 CH2         2.3775    0.2007   -0.9450 C.ar      1 HTR1       -0.1150
     11 CZ3         1.8667   -1.0898   -0.9729 C.ar      1 HTR1       -0.1410
     12 CE3         0.5217   -1.3058   -0.8709 C.ar      1 HTR1       -0.1230
     13 CD2        -0.3460   -0.2207   -0.7323 C.ar      1 HTR1       -0.0980
     14 C          -4.0226   -2.7960    0.8835 C.2       1 HTR1        0.9346
     15 O          -3.6491   -3.9412    0.7904 O.co2     1 HTR1       -0.7933
     16 OXT        -5.3307   -2.5264    1.0102 O.co2     1 HTR1       -0.7363
     17 H3         -1.0799   -1.3940    1.2912 H         1 HTR1        0.4418
     18 H2         -1.4386   -2.9083    0.8432 H         1 HTR1        0.4808
     19 HA         -3.3931   -0.8393    1.4534 H         1 HTR1        0.0997
     20 HB         -2.4282   -2.0466   -1.1765 H         1 HTR1        0.0677
     21 HH         -4.3376   -0.0220   -0.5755 H         1 HTR1        0.4590
     22 HD1        -3.0557    1.6464   -0.4056 H         1 HTR1        0.1890
     23 HE1        -0.8461    2.9079   -0.5243 H         1 HTR1        0.3047
     24 HZ2         1.9468    2.2852   -0.7954 H         1 HTR1        0.1390
     25 HH2         3.4437    0.3552   -1.0285 H         1 HTR1        0.1370
     26 HZ3         2.5383   -1.9296   -1.0756 H         1 HTR1        0.1380
     27 HE3         0.1313   -2.3126   -0.8931 H         1 HTR1        0.1380
     28 H1         -1.8337   -2.4064    2.3916 H         1 HTR1        0.4208
@<TRIPOS>BOND
     1    1    2 1
     2    1   17 1
     3    1   18 1
     4    2    3 1
     5    2   14 1
     6    2   19 1
     7    3    4 1
     8    3    5 1
     9    3   20 1
    10    4   21 1
    11    5    6 ar
    12    5   13 ar
    13    6    7 ar
    14    6   22 1
    15    7    8 ar
    16    7   23 1
    17    8    9 ar
    18    8   13 ar
    19    9   10 ar
    20    9   24 1
    21   10   11 ar
    22   10   25 1
    23   11   12 ar
    24   11   26 1
    25   12   13 ar
    26   12   27 1
    27   14   15 2
    28   14   16 1
    29   28    1 1
@<TRIPOS>SUBSTRUCTURE
     1 HTR1        2 RESIDUE           4 A     HTR     0 ROOT
