@<TRIPOS>MOLECULE
ESC.pdb
23 22 1 0 0
SMALL
AMBER ff99SB


@<TRIPOS>ATOM
      1 N           4.1614   -0.7283   -0.7005 N.4       1 ESC1       -0.8456
      2 CA          3.2165   -1.6964   -0.2079 C.3       1 ESC1       -0.0765
      3 C           3.3379   -3.0372   -0.9176 C.2       1 ESC1        0.9366
      4 O           4.0846   -3.2259   -1.8711 O.co2     1 ESC1       -0.8003
      5 CB          1.7821   -1.1532   -0.2372 C.3       1 ESC1       -0.0844
      6 CG          1.6072    0.1558    0.5388 C.3       1 ESC1       -0.0123
      7 CE          0.0439    2.2207    1.4382 C.3       1 ESC1        0.0067
      8 SD         -0.1199    0.7148    0.4527 S.3       1 ESC1       -0.3722
      9 CZ         -1.2900    2.9346    1.5486 C.3       1 ESC1       -0.0901
     10 OXT         2.5098   -3.9990   -0.4437 O.co2     1 ESC1       -0.7193
     11 HA          3.4645   -1.8721    0.8393 H         1 ESC1        0.0847
     12 HB1         1.5012   -0.9781   -1.2757 H         1 ESC1        0.0747
     13 HB2         1.1132   -1.9036    0.1852 H         1 ESC1        0.1207
     14 HG1         2.2538    0.9192    0.1062 H         1 ESC1        0.0647
     15 HG2         1.8839   -0.0032    1.5804 H         1 ESC1        0.0837
     16 HE1         0.3949    1.9598    2.4368 H         1 ESC1        0.0737
     17 HE2         0.7685    2.8838    0.9664 H         1 ESC1        0.0567
     18 HZ1        -1.1706    3.8383    2.1451 H         1 ESC1        0.0527
     19 HZ2        -2.0147    2.2751    2.0262 H         1 ESC1        0.0587
     20 HZ3        -1.6426    3.1997    0.5511 H         1 ESC1        0.0427
     21 H1          5.0932   -1.1184   -0.6671 H         1 ESC1        0.4738
     22 H2          4.1237    0.1015   -0.1267 H         1 ESC1        0.4228
     23 H3          3.9318   -0.4890   -1.6546 H         1 ESC1        0.4478
@<TRIPOS>BOND
     1    3    2 1
     2    3    4 2
     3    3   10 1
     4    2    5 1
     5    2   11 1
     6    2    1 1
     7    5    6 1
     8    5   12 1
     9    5   13 1
    10    7    9 1
    11    7   16 1
    12    7   17 1
    13    7    8 1
    14    9   18 1
    15    9   19 1
    16    9   20 1
    17    6   14 1
    18    6   15 1
    19    6    8 1
    20   21    1 1
    21   22    1 1
    22   23    1 1
@<TRIPOS>SUBSTRUCTURE
     1 ESC1        2 RESIDUE           4 A     ESC     0 ROOT
