@<TRIPOS>MOLECULE
M2S.pdb
27 26 1 0 0
SMALL
AMBER ff99SB


@<TRIPOS>ATOM
      1 N           1.2560    1.8550    1.0400 N.4       1 M2S1       -0.8296
      2 CA          1.5750    0.6580    0.2510 C.3       1 M2S1       -0.0675
      3 CB          0.2890    0.0770   -0.3390 C.3       1 M2S1       -0.0120
      4 CG1        -0.3750    1.1190   -1.2400 C.3       1 M2S1       -0.1271
      5 CG2         0.6220   -1.1700   -1.1610 C.3       1 M2S1       -0.0891
      6 CG         -0.6670   -0.3000    0.7940 C.3       1 M2S1       -0.1041
      7 SD         -2.1930   -0.9890    0.0950 S.o       1 M2S1        0.2756
      8 OE         -2.8520    0.0070   -0.6740 O.2       1 M2S1       -0.5592
      9 CE         -3.1810   -1.3680    1.5680 C.3       1 M2S1       -0.1308
     10 C           2.5180    1.0290   -0.8650 C.2       1 M2S1        0.9296
     11 O           2.6060    2.1790   -1.2240 O.co2     1 M2S1       -0.8033
     12 OXT         3.2580    0.0820   -1.4610 O.co2     1 M2S1       -0.7253
     13 H3          0.8160    2.5590    0.4660 H         1 M2S1        0.4678
     14 H2          0.6770    1.6210    1.8330 H         1 M2S1        0.4588
     15 HA          2.0480   -0.0850    0.8930 H         1 M2S1        0.0877
     16 HG11        0.3060    1.3880   -2.0480 H         1 M2S1        0.1067
     17 HG12       -1.2910    0.7060   -1.6600 H         1 M2S1        0.0447
     18 HG13       -0.6130    2.0080   -0.6550 H         1 M2S1        0.0207
     19 HG21        1.0960   -1.9130   -0.5180 H         1 M2S1        0.0447
     20 HG22       -0.2950   -1.5840   -1.5810 H         1 M2S1        0.0297
     21 HG23        1.3030   -0.9020   -1.9680 H         1 M2S1        0.0947
     22 HG1        -0.1940   -1.0430    1.4370 H         1 M2S1        0.0947
     23 HG2        -0.9040    0.5880    1.3800 H         1 M2S1        0.0807
     24 HE1        -3.3560   -0.4530    2.1330 H         1 M2S1        0.0917
     25 HE2        -4.1370   -1.7950    1.2640 H         1 M2S1        0.0977
     26 HE3        -2.6460   -2.0840    2.1900 H         1 M2S1        0.0867
     27 H1          2.1230    2.2370    1.3890 H         1 M2S1        0.4348
@<TRIPOS>BOND
     1   10    2 1
     2   10   11 2
     3   10   12 1
     4    2    1 1
     5    2    3 1
     6    2   15 1
     7    3    4 1
     8    3    5 1
     9    3    6 1
    10    9    7 1
    11    9   24 1
    12    9   25 1
    13    9   26 1
    14    6    7 1
    15    6   22 1
    16    6   23 1
    17    4   18 1
    18    4   16 1
    19    4   17 1
    20    5   19 1
    21    5   20 1
    22    5   21 1
    23   13    1 1
    24   27    1 1
    25   14    1 1
    26    8    7 2
@<TRIPOS>SUBSTRUCTURE
     1 M2S1        2 RESIDUE           4 A     M2S     0 ROOT
