@<TRIPOS>MOLECULE
LME.pdb
21 20 1 0 0
SMALL
AMBER ff99SB


@<TRIPOS>ATOM
      1 N           1.5795    1.0883   -1.0088 N.4       1 LME1       -1.1216
      2 CA          1.2938    0.1097    0.0490 C.3       1 LME1        0.0055
      3 CB         -0.2186   -0.0950    0.1603 C.3       1 LME1       -0.0507
      4 CG2        -0.7617   -0.6105   -1.1739 C.3       1 LME1       -0.0971
      5 CG1        -0.8885    1.2377    0.5026 C.3       1 LME1       -0.1654
      6 CD         -2.3619    1.0139    0.7323 C.2       1 LME1        0.8926
      7 OE1        -2.8268   -0.0957    0.6319 O.co2     1 LME1       -0.6413
      8 OE2        -3.1564    2.0490    1.0476 O.co2     1 LME1       -0.5953
      9 C           1.9542   -1.2022   -0.2882 C.2       1 LME1        0.8936
     10 O           2.2804   -1.4388   -1.4273 O.co2     1 LME1       -0.8403
     11 H2          1.2300    0.7693   -1.9000 H         1 LME1        0.3578
     12 H3          1.2016    1.9947   -0.7750 H         1 LME1        0.4828
     13 HA          1.6815    0.4776    0.9992 H         1 LME1        0.0417
     14 HB         -0.4309   -0.8204    0.9447 H         1 LME1        0.0827
     15 HG21       -0.5503    0.1153   -1.9593 H         1 LME1        0.0267
     16 HG22       -0.2848   -1.5604   -1.4174 H         1 LME1        0.0717
     17 HG23       -1.8396   -0.7555   -1.0950 H         1 LME1        0.0167
     18 HG11       -0.4384    1.6498    1.4056 H         1 LME1        0.0597
     19 HG12       -0.7523    1.9369   -0.3223 H         1 LME1        0.0637
     20 OXT         2.1812   -2.1074    0.6761 O.co2     1 LME1       -0.8243
     21 H1          2.5826    1.1797   -1.0839 H         1 LME1        0.3398
@<TRIPOS>BOND
     1    9    2 1
     2    9   10 2
     3    9   20 1
     4    2    3 1
     5    2   13 1
     6    2    1 1
     7    3    5 1
     8    3    4 1
     9    3   14 1
    10    6    5 1
    11    6    7 2
    12    6    8 2
    13    5   18 1
    14    5   19 1
    15    4   15 1
    16    4   16 1
    17    4   17 1
    18   21    1 1
    19   11    1 1
    20   12    1 1
@<TRIPOS>SUBSTRUCTURE
     1 LME1        2 RESIDUE           4 A     LME     0 ROOT
