@<TRIPOS>MOLECULE
GLU.pdb
 18 17 0 0 0
SMALL
GASTEIGER

@<TRIPOS>ATOM
      1  N         -0.5170   -2.3460   -1.0380 N.4     1  GLU1        0.3871
      2  CA         0.0420   -0.9970   -1.0380 C.3     1  GLU1        0.0210
      3  O          2.1800   -2.1050   -1.0380 O.co2   1  GLU1       -0.2483
      4  CB        -0.4810   -0.2120    0.1990 C.3     1  GLU1       -0.0458
      5  CG        -0.0060    1.2730    0.3100 C.3     1  GLU1        0.0482
      6  CD        -0.4300    2.0770    1.5250 C.2     1  GLU1        0.3560
      7  OE1       -1.1580    1.5750    2.4030 O.co2   1  GLU1       -0.2464
      8  OE2       -0.0000    3.2470    1.5970 O.co2   1  GLU1       -0.2464
      9  C          1.5810   -1.0640   -1.0380 C.2     1  GLU1        0.3420
     10  OXT        2.3240    0.1580   -1.0380 O.co2   1  GLU1       -0.2483
     11  H3         0.1100   -3.2250   -1.0380 H       1  GLU1       -0.0889
     12  HA        -0.2840   -0.4790   -1.9580 H       1  GLU1        0.0198
     13  HB1       -0.1920   -0.7430    1.1290 H       1  GLU1        0.0259
     14  HB2       -1.5880   -0.2220    0.2120 H       1  GLU1        0.0259
     15  HG1       -0.3160    1.8580   -0.5710 H       1  GLU1        0.0378
     16  HG2        1.0940    1.3400    0.3390 H       1  GLU1        0.0378
     17  H1        -1.0960   -2.4120   -0.2130 H       1  GLU1       -0.0889
     18  H2        -1.1290   -2.4160   -1.8390 H       1  GLU1       -0.0889
@<TRIPOS>BOND
     1     9    10    1
     2     2     4    1
     3     2     9    1
     4     2    12    1
     5     4    13    1
     6     4    14    1
     7     4     5    1
     8     6     7   ar
     9     6     8   ar
    10     5    15    1
    11     5    16    1
    12     5     6    1
    13     1    18    1
    14     1     2    1
    15     1    17    1
    16     1    11    1
    17     3     9    2
