@<TRIPOS>MOLECULE
QX32.pdb
27 28 1 0 0
SMALL
AMBER ff99SB


@<TRIPOS>ATOM
      1 N          -1.7910   -0.9058    1.3098 N.4       1 QX32   -0.8206
      2 CA         -0.8892    0.0187    0.6337 C.3       1 QX32   -0.0665
      3 O          -0.3025   -1.4199   -1.0871 O.co2     1 QX32   -0.7973
      4 CB          0.5296    0.0165    1.2696 C.3       1 QX32   -0.1467
      5 C          -0.9664   -0.4672   -0.7188 C.2       1 QX32    0.9366
      6 OXT        -1.8669   -0.0816   -1.4441 O.co2     1 QX32   -0.7163
      7 CG          0.4902    0.5068    2.6668 C.ar      1 QX32    0.3103
      8 CZ          0.3427    1.3696    5.3063 C.ar      1 QX32    0.2833
      9 NE2         0.5178    2.2587    4.2941 N.ar      1 QX32   -0.6080
     10 CD2         0.5896    1.8772    2.9931 C.ar      1 QX32    0.3059
     11 ND1         0.3121   -0.3806    3.6822 N.ar      1 QX32   -0.6990
     12 CE1         0.2294   -0.0088    4.9847 C.ar      1 QX32    0.2963
     13 CH1         0.0310   -0.9586    6.0041 C.ar      1 QX32   -0.1723
     14 CJ1        -0.0417   -0.5368    7.3453 C.ar      1 QX32   -0.1110
     15 CJ2         0.0813    0.8301    7.6680 C.ar      1 QX32   -0.1230
     16 CH2         0.2686    1.7851    6.6501 C.ar      1 QX32   -0.1483
     17 HA         -1.3037    1.0257    0.6796 H         1 QX32    0.0947
     18 HB1         0.9217   -1.0005    1.2606 H         1 QX32    0.0787
     19 HB2         1.1862    0.6589    0.6828 H         1 QX32    0.1307
     20 HD2         0.7215    2.6147    2.2152 H         1 QX32    0.0471
     21 HH1        -0.0650   -2.0060    5.7587 H         1 QX32    0.1410
     22 HJ1        -0.1923   -1.2633    8.1301 H         1 QX32    0.1420
     23 HJ2         0.0317    1.1460    8.6996 H         1 QX32    0.1440
     24 HH2         0.3551    2.8325    6.8990 H         1 QX32    0.1580
     25 H1         -1.8345   -0.6764    2.2924 H         1 QX32    0.4298
     26 H2         -2.7137   -0.8316    0.9059 H         1 QX32    0.4808
     27 H3         -1.4500   -1.8501    1.1993 H         1 QX32    0.4308
@<TRIPOS>BOND
     1    3    5 2
     2    5    2 1
     3    5    6 1
     4    2    1 1
     5    2    4 1
     6    4    7 1
     7   10    7 ar
     8    7   11 ar
     9    8    9 ar
    10    9   10 ar
    11   11   12 ar
    12   13   14 ar
    13   14   15 ar
    14   15   16 ar
    15    8   12 ar
    16    8   16 ar
    17   12   13 ar
    18   17    2 1
    19   18    4 1
    20   19    4 1
    21   20   10 1
    22   21   13 1
    23   22   14 1
    24   23   15 1
    25   24   16 1
    26   25    1 1
    27   26    1 1
    28   27    1 1
@<TRIPOS>SUBSTRUCTURE
     1 QX32     2 RESIDUE           4 A     QX32     0 ROOT
