@<TRIPOS>MOLECULE
4HMP.pdb
27 27 1 0 0
SMALL
AMBER ff99SB


@<TRIPOS>ATOM
      1 CA          0.2610   -0.4830   -0.0740 C.3       1 4HMP   -0.0675
      2 C          -0.1280   -0.8030    1.2800 C.2       1 4HMP    0.9366
      3 CB          0.2360   -1.7150   -1.0240 C.3       1 4HMP   -0.0501
      4 O           0.5080   -1.5980    1.9580 O.co2     1 4HMP   -0.8033
      5 OXT        -1.0610   -0.2250    1.8060 O.co2     1 4HMP   -0.7103
      6 N           1.5970    0.0940    0.0510 N.4       1 4HMP   -0.8356
      7 CG          0.4700   -1.3290   -2.4420 C.ar      1 4HMP   -0.1153
      8 CD1        -0.5990   -0.8630   -3.2430 C.ar      1 4HMP   -0.1270
      9 CD2         1.7590   -1.3980   -3.0190 C.ar      1 4HMP   -0.1540
     10 CE2         1.9730   -1.0120   -4.3560 C.ar      1 4HMP   -0.1250
     11 CZ          0.9020   -0.5480   -5.1550 C.ar      1 4HMP   -0.0853
     12 CE1        -0.3860   -0.4740   -4.5790 C.ar      1 4HMP   -0.0960
     13 CH          1.1170   -0.1440   -6.5670 C.3       1 4HMP    0.1747
     14 OJ          1.1520    1.2740   -6.6720 O.3       1 4HMP   -0.5988
     15 HA         -0.4158    0.2769   -0.4647 H         1 4HMP    0.0897
     16 HB1        -0.7376   -2.1991   -0.9471 H         1 4HMP    0.1157
     17 HB2         1.0088   -2.4187   -0.7146 H         1 4HMP    0.0707
     18 HD1        -1.5925   -0.8049   -2.8235 H         1 4HMP    0.1450
     19 HD2         2.5900   -1.7513   -2.4266 H         1 4HMP    0.1320
     20 HE2         2.9661   -1.0709   -4.7763 H         1 4HMP    0.1350
     21 HE1        -1.2158   -0.1152   -5.1699 H         1 4HMP    0.1580
     22 HH1         2.0635   -0.5545   -6.9187 H         1 4HMP    0.0327
     23 HH2         0.3045   -0.5318   -7.1814 H         1 4HMP    0.0387
     24 HJ          1.2914    1.5241   -7.5883 H         1 4HMP    0.4070
     25 H1          1.9421    0.3466   -0.8640 H         1 4HMP    0.4268
     26 H2          2.2182   -0.5834    0.4697 H         1 4HMP    0.4828
     27 H3          1.5548    0.9176    0.6341 H         1 4HMP    0.4248
@<TRIPOS>BOND
     1    2    1 1
     2    2    4 2
     3    2    5 1
     4    1    3 1
     5    1    6 1
     6    3    7 1
     7    8   12 ar
     8    8    7 ar
     9    9   10 ar
    10    9    7 ar
    11   12   11 ar
    12   10   11 ar
    13   13   11 1
    14   13   14 1
    15   15    1 1
    16   16    3 1
    17   17    3 1
    18   18    8 1
    19   19    9 1
    20   20   10 1
    21   21   12 1
    22   22   13 1
    23   23   13 1
    24   24   14 1
    25   25    6 1
    26   26    6 1
    27   27    6 1
@<TRIPOS>SUBSTRUCTURE
     1 4HMP     1 RESIDUE           4 A     4HMP     0 ROOT
