@<TRIPOS>MOLECULE
GBUT.pdb
24 23 1 0 0
SMALL
AMBER ff99SB


@<TRIPOS>ATOM
      1 N          31.8054   35.9871  -89.4293 N.4       1 GBUT1       -0.8256
      2 CA         33.0661   35.3983  -89.8706 C.3       1 GBUT1       -0.0415
      3 C          33.6727   36.1634  -91.0648 C.2       1 GBUT1        0.9006
      4 O          34.8568   36.3603  -91.1297 O.co2     1 GBUT1       -0.7623
      5 CB         32.8432   33.9009  -90.2204 C.3       1 GBUT1       -0.1164
      6 CG         32.3384   32.9655  -89.0617 C.3       1 GBUT1        0.0163
      7 ND         32.1420   31.5194  -89.3073 N.pl3     1 GBUT1       -0.3791
      8 CE         31.6431   30.6912  -88.3939 C.cat     1 GBUT1        0.5611
      9 NZ1        31.2843   31.1099  -87.1830 N.pl3     1 GBUT1       -0.4831
     10 NZ2        31.5097   29.4089  -88.7210 N.pl3     1 GBUT1       -0.4721
     11 OXT        32.8178   36.6423  -92.1054 O.co2     1 GBUT1       -0.8083
     12 HA         33.7718   35.4504  -89.0415 H         1 GBUT1        0.1187
     13 HB1        32.1064   33.8570  -91.0230 H         1 GBUT1        0.0787
     14 HB2        33.7818   33.4972  -90.5987 H         1 GBUT1        0.0707
     15 HG1        31.3778   33.3625  -88.7336 H         1 GBUT1        0.0927
     16 HG2        33.0366   33.0658  -88.2315 H         1 GBUT1        0.0867
     17 HD         32.3981   31.1442  -90.2093 H         1 GBUT1        0.2957
     18 HZ11       30.9102   30.4549  -86.5135 H         1 GBUT1        0.3217
     19 HZ12       31.3865   32.0829  -86.9342 H         1 GBUT1        0.3167
     20 HZ21       31.1345   28.7545  -88.0511 H         1 GBUT1        0.3047
     21 HZ22       31.7831   29.0917  -89.6405 H         1 GBUT1        0.3417
     22 H1         31.9493   36.9601  -89.2015 H         1 GBUT1        0.4588
     23 H2         31.4724   35.4960  -88.6123 H         1 GBUT1        0.4398
     24 H3         31.1216   35.9122  -90.1686 H         1 GBUT1        0.4818
@<TRIPOS>BOND
     1    3    2 1
     2    3    4 2
     3    3   11 2
     4    2    5 1
     5    2   12 1
     6    2    1 1
     7    5    6 1
     8    5   13 1
     9    5   14 1
    10    8    7 2
    11    8    9 2
    12    8   10 2
    13    6   15 1
    14    6   16 1
    15    6    7 1
    16   22    1 1
    17   23    1 1
    18   24    1 1
    19   17    7 1
    20   18    9 1
    21   19    9 1
    22   20   10 1
    23   21   10 1
@<TRIPOS>SUBSTRUCTURE
     1 GBUT1        2 RESIDUE           4 A     GBUT     0 ROOT
