@<TRIPOS>MOLECULE
3FG.pdb
22 22 1 0 0
SMALL
AMBER ff99SB


@<TRIPOS>ATOM
      1 N           1.3666    0.4518    2.3383 N.4       1 3FG1       -0.8356
      2 OD1        -2.9476   -1.5834   -1.1887 O.3       1 3FG1       -0.4901
      3 CD1        -2.0174   -0.6773   -0.7883 C.ar      1 3FG1        0.1691
      4 CG1        -0.9701   -1.0740    0.0318 C.ar      1 3FG1       -0.1680
      5 CZ         -2.1102    0.6417   -1.2028 C.ar      1 3FG1       -0.2930
      6 CD2        -1.1595    1.5627   -0.7932 C.ar      1 3FG1        0.1711
      7 OD2        -1.2473    2.8580   -1.1984 O.3       1 3FG1       -0.4921
      8 CG2        -0.1175    1.1632    0.0324 C.ar      1 3FG1       -0.2010
      9 CB         -0.0254   -0.1533    0.4401 C.ar      1 3FG1       -0.0283
     10 CA          1.1109   -0.5863    1.3312 C.3       1 3FG1       -0.0372
     11 C           2.3512   -0.7954    0.5000 C.2       1 3FG1        0.9486
     12 O           3.2024    0.0600    0.4603 O.co2     1 3FG1       -0.7973
     13 OXT         2.5081   -1.9321   -0.1972 O.co2     1 3FG1       -0.6903
     14 HN1         2.0799    0.1578    2.9886 H         1 3FG1        0.4248
     15 HN2         1.6146    1.3270    1.9014 H         1 3FG1        0.4858
     16 HA          0.8471   -1.5188    1.8296 H         1 3FG1        0.0977
     17 HD1        -3.7055   -1.6596   -0.5922 H         1 3FG1        0.4230
     18 HG1        -0.8956   -2.1029    0.3529 H         1 3FG1        0.1620
     19 HZ         -2.9219    0.9510   -1.8460 H         1 3FG1        0.1400
     20 HD2        -1.7628    3.4212   -0.6048 H         1 3FG1        0.4240
     21 HG2         0.6231    1.8812    0.3526 H         1 3FG1        0.1600
     22 HN3         0.5133    0.5958    2.8590 H         1 3FG1        0.4258
@<TRIPOS>BOND
     1   11   10 1
     2   11   12 2
     3   11   13 1
     4   10    9 1
     5   10   16 1
     6   10    1 1
     7    9    4 ar
     8    9    8 ar
     9    3    4 ar
    10    3    5 ar
    11    3    2 1
    12    6    8 ar
    13    6    5 ar
    14    6    7 1
    15    4   18 1
    16    8   21 1
    17    5   19 1
    18   17    2 1
    19   20    7 1
    20   14    1 1
    21   15    1 1
    22   22    1 1
@<TRIPOS>SUBSTRUCTURE
     1 3FG1       10 RESIDUE           4 A     3FG     0 ROOT
