@<TRIPOS>MOLECULE
AGM.pdb
30 29 1 0 0
SMALL
AMBER ff99SB


@<TRIPOS>ATOM
      1 N           1.1769    0.5063    3.0044 N.4       1 AGM1       -0.8276
      2 CA          1.0423   -0.6345    2.0887 C.3       1 AGM1       -0.0285
      3 CB          0.4384   -0.1582    0.7659 C.3       1 AGM1       -0.0924
      4 CG         -0.9883    0.3372    1.0065 C.3       1 AGM1       -0.0964
      5 CD         -1.5921    0.8135   -0.3163 C.3       1 AGM1        0.0420
      6 CE2        -2.9712    1.4242   -0.0569 C.3       1 AGM1       -0.1141
      7 NE1        -1.7259   -0.3241   -1.2289 N.pl3     1 AGM1       -0.4021
      8 CZ         -1.7444   -0.1163   -2.5807 C.cat     1 AGM1        0.5511
      9 NH1        -1.6406    1.1185   -3.0674 N.pl3     1 AGM1       -0.5281
     10 NH2        -1.8650   -1.1507   -3.4119 N.pl3     1 AGM1       -0.4781
     11 C           2.4014   -1.2352    1.8334 C.2       1 AGM1        0.8966
     12 O           3.3982   -0.5863    2.0429 O.co2     1 AGM1       -0.8043
     13 OXT         2.5023   -2.4924    1.3734 O.co2     1 AGM1       -0.7703
     14 H3          1.5139    0.2073    3.9079 H         1 AGM1        0.4578
     15 H2          1.7768    1.2164    2.6115 H         1 AGM1        0.4778
     16 HA          0.3909   -1.3849    2.5364 H         1 AGM1        0.1147
     17 HB1         1.0427    0.6544    0.3628 H         1 AGM1        0.0517
     18 HB2         0.4206   -0.9851    0.0559 H         1 AGM1        0.0717
     19 HG1        -1.5921   -0.4741    1.4101 H         1 AGM1        0.0827
     20 HG2        -0.9715    1.1640    1.7175 H         1 AGM1        0.0817
     21 HD         -0.9410    1.5644   -0.7632 H         1 AGM1        0.0607
     22 HE21       -3.4022    1.7630   -0.9993 H         1 AGM1        0.0507
     23 HE22       -3.6233    0.6731    0.3910 H         1 AGM1        0.0677
     24 HE23       -2.8720    2.2708    0.6235 H         1 AGM1        0.0637
     25 HE1        -1.8019   -1.2231   -0.8760 H         1 AGM1        0.3407
     26 HH11       -1.5518    1.8715   -2.4626 H         1 AGM1        0.3147
     27 HH12       -1.6534    1.2656   -4.0258 H         1 AGM1        0.3157
     28 HH21       -1.9410   -2.0509   -3.0582 H         1 AGM1        0.3587
     29 HH22       -1.8782   -1.0037   -4.3717 H         1 AGM1        0.3037
     30 H1          0.2605    0.9107    3.1332 H         1 AGM1        0.4378
@<TRIPOS>BOND
     1   11    2 1
     2   11   12 2
     3   11   13 1
     4    2    1 1
     5    2    3 1
     6    2   16 1
     7    3    4 1
     8    3   18 1
     9    3   17 1
    10    5    4 1
    11    5    6 1
    12    5    7 1
    13    5   21 1
    14    6   22 1
    15    6   23 1
    16    6   24 1
    17    4   19 1
    18    4   20 1
    19    8    7 2
    20    8    9 2
    21    8   10 2
    22   14    1 1
    23   30    1 1
    24   15    1 1
    25   25    7 1
    26   26    9 1
    27   27    9 1
    28   28   10 1
    29   29   10 1
@<TRIPOS>SUBSTRUCTURE
     1 AGM1        2 RESIDUE           4 A     AGM     0 ROOT
