@<TRIPOS>MOLECULE
DILE.pdb
25 24 1 0 0
SMALL
AMBER ff99SB


@<TRIPOS>ATOM
      1 N          -0.3120    1.6080    0.5910 N.4       1 DILE  -0.8296
      2 CA         -0.5150    0.5140   -0.3680 C.3       1 DILE  -0.0745
      3 C          -1.9070   -0.0410   -0.2120 C.2       1 DILE   0.9326
      4 O          -2.5220    0.1510    0.8100 O.co2     1 DILE  -0.8053
      5 OXT        -2.4610   -0.7530   -1.2050 O.co2     1 DILE  -0.7133
      6 CG1         1.9310   -0.0260   -0.2620 C.3       1 DILE  -0.0874
      7 CG2         0.2960   -1.7410   -1.1080 C.3       1 DILE  -0.0854
      8 CD1         2.9600   -1.1270    0.0540 C.3       1 DILE  -0.0911
      9 CD2         0.6390   -1.2510   -2.5270 C.3       1 DILE  -0.0921
     10 CB          0.5120   -0.5990   -0.1000 C.3       1 DILE  -0.0627
     11 HN1         0.6370    1.9390    0.4880 H         1 DILE   0.4178
     12 HN2        -0.4260    1.2830    1.5390 H         1 DILE   0.4798
     13 HN3        -0.9330    2.3790    0.3950 H         1 DILE   0.4338
     14 HA         -0.3860    0.8910   -1.3830 H         1 DILE   0.0907
     15 HG11        2.0690    0.8080    0.4250 H         1 DILE   0.0077
     16 HG12        2.0730    0.3190   -1.2870 H         1 DILE   0.0367
     17 HD13        3.3550   -1.5340   -0.8760 H         1 DILE   0.0477
     18 HG21        0.9430   -2.5780   -0.8460 H         1 DILE   0.0437
     19 HD21       -0.0430   -0.4490   -2.8100 H         1 DILE   0.0327
     20 HG22       -0.7450   -2.0630   -1.0770 H         1 DILE   0.1017
     21 HD11        2.4780   -1.9220    0.6240 H         1 DILE   0.0437
     22 HD12        3.7750   -0.7040    0.6410 H         1 DILE   0.0337
     23 HD22        0.5400   -2.0780   -3.2310 H         1 DILE   0.0427
     24 HD23        1.6630   -0.8800   -2.5450 H         1 DILE   0.0207
     25 HB          0.3890   -0.9810    0.9130 H         1 DILE   0.0737
@<TRIPOS>BOND
     1    3    2 1
     2    3    4 2
     3    3    5 1
     4    2   10 1
     5    2   14 1
     6    2    1 1
     7   10    6 1
     8   10    7 1
     9   10   25 1
    10    8    6 1
    11    8   21 1
    12    8   22 1
    13    8   17 1
    14    9    7 1
    15    9   19 1
    16    9   23 1
    17    9   24 1
    18    6   15 1
    19    6   16 1
    20    7   18 1
    21    7   20 1
    22   11    1 1
    23   12    1 1
    24   13    1 1
@<TRIPOS>SUBSTRUCTURE
     1 DILE    2 RESIDUE           4 A     DILE    0 ROOT
