@<TRIPOS>MOLECULE
3MY.pdb
24 24 1 0 0
SMALL
AMBER ff99SB


@<TRIPOS>ATOM
      1 N          -0.8130   -2.1990    1.4230 N.4       1 3MY   -0.8346
      2 CA          0.6120   -2.0820    1.1270 C.3       1 3MY   -0.0715
      3 O           0.9270   -3.3750    3.1280 O.co2     1 3MY   -0.8003
      4 CB          1.0520   -0.5890    1.0960 C.3       1 3MY   -0.0461
      5 CG          0.3900    0.3020    0.0380 C.ar      1 3MY   -0.1413
      6 CD1         0.8070    0.2540   -1.2960 C.ar      1 3MY   -0.0870
      7 CD2        -0.6470    1.1640    0.4060 C.ar      1 3MY   -0.1120
      8 CE1         0.1880    1.0570   -2.2500 C.ar      1 3MY   -0.1450
      9 CE2        -1.2640    1.9660   -0.5490 C.ar      1 3MY   -0.0726
     10 CZ         -0.8460    1.9120   -1.8770 C.ar      1 3MY    0.1421
     11 OH         -1.4520    2.6960   -2.8170 O.3       1 3MY   -0.4841
     12 C           1.4480   -2.8100    2.2010 C.2       1 3MY    0.9376
     13 OXT         2.8740   -2.8130    2.0940 O.co2     1 3MY   -0.7093
     14 CLE        -2.5830    3.0430   -0.0640 Cl        1 3MY   -0.0854
     15 H3         -1.1760   -2.7330    2.2890 H         1 3MY    0.4848
     16 HA          0.8160   -2.5590    0.1500 H         1 3MY    0.0897
     17 HB1         2.1480   -0.5270    0.9450 H         1 3MY    0.1177
     18 HB2         0.9050   -0.1420    2.1010 H         1 3MY    0.0707
     19 HD1         1.6050   -0.4110   -1.5960 H         1 3MY    0.1530
     20 HD2        -0.9840    1.2030    1.4330 H         1 3MY    0.1460
     21 HE1         0.5040    1.0170   -3.2820 H         1 3MY    0.1630
     22 HH         -2.1360    3.2130   -2.3860 H         1 3MY    0.4340
     23 H1         -1.1628   -1.2551    1.5059 H         1 3MY    0.4248
     24 H2         -1.2534   -2.6103    0.6125 H         1 3MY    0.4258
@<TRIPOS>BOND
     1   12    2 1
     2   12    3 2
     3   12   13 1
     4    2    4 1
     5    2   16 1
     6    2    1 1
     7    4    5 1
     8    4   17 1
     9    4   18 1
    10    6    8 ar
    11    6    5 ar
    12    6   19 1
    13    7    9 ar
    14    7    5 ar
    15    7   20 1
    16    8   10 ar
    17    8   21 1
    18    9   14 1
    19    9   10 ar
    20   10   11 1
    21   15    1 1
    22   22   11 1
    23   23    1 1
    24   24    1 1
@<TRIPOS>SUBSTRUCTURE
     1 3MY     2 RESIDUE           4 A     3MY     0 ROOT
