@<TRIPOS>MOLECULE
MPH2.pdb
26 26 1 0 0
SMALL
AMBER ff99SB


@<TRIPOS>ATOM
      1 N          22.1880  -19.5900   47.7520 N.4       1 MPH2   -0.8356
      2 CA         21.5330  -19.2300   49.0070 C.3       1 MPH2   -0.0665
      3 C          20.1970  -19.9190   49.1360 C.2       1 MPH2    0.9356
      4 O          19.7650  -20.6780   48.2650 O.co2     1 MPH2   -0.8043
      5 CB         21.2900  -17.6940   49.0850 C.3       1 MPH2   -0.0521
      6 CG         22.5350  -16.7980   49.0580 C.ar      1 MPH2   -0.1173
      7 CD2        23.2570  -16.5470   50.2290 C.ar      1 MPH2   -0.1240
      8 CD1        22.9580  -16.2340   47.8510 C.ar      1 MPH2   -0.0933
      9 CE2        24.3930  -15.7440   50.1890 C.ar      1 MPH2   -0.1290
     10 CE1        24.0940  -15.4320   47.8130 C.ar      1 MPH2   -0.1290
     11 CZ         24.8110  -15.1870   48.9830 C.ar      1 MPH2   -0.1230
     12 OXT        19.5570  -19.7380   50.1450 O.co2     1 MPH2   -0.7113
     13 CH         22.1810  -16.5120   46.5510 C.3       1 MPH2   -0.0558
     14 HN1        23.0780  -19.1170   47.6880 H         1 MPH2    0.4288
     15 HN2        22.3350  -20.5890   47.7240 H         1 MPH2    0.4248
     16 HN3        21.6040  -19.3140   46.9760 H         1 MPH2    0.4818
     17 HA         22.1680  -19.5580   49.8510 H         1 MPH2    0.0877
     18 HB1        20.7270  -17.4530   50.0080 H         1 MPH2    0.1137
     19 HB2        20.5970  -17.3900   48.2730 H         1 MPH2    0.0737
     20 HD2        22.9440  -16.9800   51.1690 H         1 MPH2    0.1420
     21 HZ         25.7010  -14.5590   48.9530 H         1 MPH2    0.1380
     22 HH1        21.8990  -17.5640   46.5130 H         1 MPH2    0.0247
     23 HH2        22.8090  -16.2720   45.6930 H         1 MPH2    0.0487
     24 HH3        21.2820  -15.8950   46.5270 H         1 MPH2    0.0647
     25 HE2        24.9508  -15.5527   51.0938 H         1 MPH2    0.1390
     26 HE1        24.4199  -14.9998   46.8784 H         1 MPH2    0.1360
@<TRIPOS>BOND
     1    3    2 1
     2    3    4 2
     3    3   12 1
     4    2    5 1
     5    2   17 1
     6    2    1 1
     7    5    6 1
     8    5   18 1
     9    5   19 1
    10    7    9 ar
    11    7    6 ar
    12    7   20 1
    13    8   10 ar
    14    8   13 1
    15    8    6 ar
    16    9   11 ar
    17   10   11 ar
    18   13   22 1
    19   13   23 1
    20   13   24 1
    21   11   21 1
    22   14    1 1
    23   15    1 1
    24   16    1 1
    25   25    9 1
    26   26   10 1
@<TRIPOS>SUBSTRUCTURE
     1 MPH2     2 RESIDUE           4 A     MPH2     0 ROOT
