@<TRIPOS>MOLECULE
OMY.pdb
25 25 1 0 0
SMALL
AMBER ff99SB


@<TRIPOS>ATOM
      1 N           2.4770    0.6080    0.5580 N.4       1 OMY1       -0.8176
      2 CA          2.1200   -0.3660   -0.4810 C.3       1 OMY1       -0.1185
      3 OH         -3.2590    1.0250    2.5120 O.3       1 OMY1       -0.4851
      4 CE2        -1.3370    1.7990    1.3440 C.ar      1 OMY1       -0.1560
      5 CE1        -2.1770   -0.4180    0.9590 C.ar      1 OMY1       -0.0736
      6 CZ         -2.2650    0.8040    1.6120 C.ar      1 OMY1        0.1451
      7 CG         -0.2380    0.3520   -0.2170 C.ar      1 OMY1       -0.1523
      8 CD2        -0.3280    1.5720    0.4280 C.ar      1 OMY1       -0.0880
      9 CD1        -1.1660   -0.6400    0.0430 C.ar      1 OMY1       -0.0780
     10 CB          0.8640    0.1080   -1.2150 C.3       1 OMY1        0.1954
     11 CL         -3.3370   -1.6670    1.2920 Cl        1 OMY1       -0.0804
     12 O           4.0870    0.3820   -1.5410 O.co2     1 OMY1       -0.8063
     13 C           3.2570   -0.4920   -1.4630 C.2       1 OMY1        0.9246
     14 OG          1.1500    1.3210   -1.9150 O.3       1 OMY1       -0.6228
     15 OXT         3.3470   -1.5770   -2.2500 O.co2     1 OMY1       -0.7003
     16 HN1         2.6600    1.5150    0.1570 H         1 OMY1        0.4808
     17 HN2         1.7580    0.6630    1.2640 H         1 OMY1        0.4308
     18 HA          1.9270   -1.3350   -0.0220 H         1 OMY1        0.1027
     19 HH         -4.0640    1.3970    2.1270 H         1 OMY1        0.4350
     20 HE2        -1.4060    2.7520    1.8470 H         1 OMY1        0.1610
     21 HD2         0.3930    2.3490    0.2160 H         1 OMY1        0.1590
     22 HD1        -1.0990   -1.5880   -0.4680 H         1 OMY1        0.1600
     23 HB          0.5480   -0.6550   -1.9260 H         1 OMY1        0.0967
     24 HG          1.4380    2.0460   -1.3430 H         1 OMY1        0.4540
     25 HN3         3.3260    0.2890    1.0030 H         1 OMY1        0.4348
@<TRIPOS>BOND
     1   13    2 1
     2   13   12 2
     3   13   15 1
     4    2    1 1
     5    2   10 1
     6    2   18 1
     7   10    7 1
     8   10   14 1
     9   10   23 1
    10    9    5 ar
    11    9    7 ar
    12    9   22 1
    13    8    4 ar
    14    8    7 ar
    15    8   21 1
    16    5    6 ar
    17    5   11 1
    18    4    6 ar
    19    4   20 1
    20    6    3 1
    21   25    1 1
    22   19    3 1
    23   24   14 1
    24   16    1 1
    25   17    1 1
@<TRIPOS>SUBSTRUCTURE
     1 OMY1        2 RESIDUE           4 A     OMY     0 ROOT
