@<TRIPOS>MOLECULE
CPG2.pdb
20 20 1 0 0
SMALL
AMBER ff99SB


@<TRIPOS>ATOM
      1 N           0.2305    4.0359    1.1508 N.4       1 CPG21       -0.8366
      2 CA          1.4446    3.7223    0.3968 C.3       1 CPG21       -0.0142
      3 C           1.7277    4.8634   -0.4650 C.2       1 CPG21        0.9356
      4 O           0.9006    5.7436   -0.6694 O.co2     1 CPG21       -0.7983
      5 CB          1.2809    2.3897   -0.2716 C.ar      1 CPG21       -0.1053
      6 CG1         0.7241    2.2440   -1.5668 C.ar      1 CPG21       -0.0620
      7 CG2         1.6610    1.2086    0.4173 C.ar      1 CPG21        0.0024
      8 CD1         0.6038    0.9788   -2.1701 C.ar      1 CPG21       -0.1280
      9 CD2         1.5223   -0.0602   -0.1762 C.ar      1 CPG21       -0.1260
     10 CE          1.0015   -0.1754   -1.4746 C.ar      1 CPG21       -0.1060
     11 CLG         2.3223    1.3327    2.0548 Cl        1 CPG21       -0.1294
     12 OXT         2.8317    5.0201   -0.9578 O.co2     1 CPG21       -0.7063
     13 HA          2.3310    3.6254    1.0233 H         1 CPG21        0.1047
     14 HG1         0.3852    3.1192   -2.1001 H         1 CPG21        0.1880
     15 HD1         0.2049    0.8942   -3.1706 H         1 CPG21        0.1480
     16 HD2         1.8166   -0.9455    0.3680 H         1 CPG21        0.1510
     17 HE          0.9066   -1.1465   -1.9368 H         1 CPG21        0.1430
     18 H1         -0.1882    3.1795    1.4850 H         1 CPG21        0.4288
     19 H2          0.4645    4.6248    1.9365 H         1 CPG21        0.4238
     20 H3         -0.4238    4.5177    0.5513 H         1 CPG21        0.4868
@<TRIPOS>BOND
     1    3    2 1
     2    3    4 2
     3    3   12 2
     4    2    5 1
     5    2   13 1
     6    2    1 1
     7    5    6 ar
     8    5    7 ar
     9    8   10 ar
    10    8    6 ar
    11    8   15 1
    12    9   10 ar
    13    9    7 ar
    14    9   16 1
    15   10   17 1
    16    6   14 1
    17    7   11 1
    18   18    1 1
    19   19    1 1
    20   20    1 1
@<TRIPOS>SUBSTRUCTURE
     1 CPG21        2 RESIDUE           4 A     CPG2     0 ROOT
