@<TRIPOS>MOLECULE
PYR3.pdb
22 22 1 0 0
SMALL
AMBER ff99SB


@<TRIPOS>ATOM
      1 N          14.0250   32.0590  -72.0160 N.4       1 PYR3   -0.8346
      2 CA         13.6090   33.1970  -71.1870 C.3       1 PYR3   -0.0725
      3 C          12.5980   34.0800  -71.9210 C.2       1 PYR3    0.9376
      4 O          11.3950   34.0340  -71.6430 O.co2     1 PYR3   -0.7073
      5 CB         14.8270   34.0310  -70.7630 C.3       1 PYR3   -0.0461
      6 CG         15.9210   33.2270  -70.1020 C.ar      1 PYR3   -0.2326
      7 CD1        15.8750   32.9570  -68.7340 C.ar      1 PYR3    0.4012
      8 CD2        16.9970   32.7410  -70.8480 C.ar      1 PYR3   -0.1140
      9 NE1        16.8800   32.2150  -68.1210 N.ar      1 PYR3   -0.6540
     10 CE2        18.0080   31.9960  -70.2460 C.ar      1 PYR3   -0.2423
     11 CZ         17.9500   31.7330  -68.8810 C.ar      1 PYR3    0.3962
     12 OXT        12.9880   34.8460  -72.8000 O.co2     1 PYR3   -0.7993
     13 HA         13.1322   32.8076  -70.2875 H         1 PYR3    0.0907
     14 HB1        14.4918   34.7952  -70.0618 H         1 PYR3    0.1207
     15 HB2        15.2384   34.5221  -71.6448 H         1 PYR3    0.0717
     16 HD1        15.0500   33.3281  -68.1441 H         1 PYR3    0.0341
     17 HD2        17.0458   32.9459  -71.9073 H         1 PYR3    0.1380
     18 HE2        18.8329   31.6243  -70.8358 H         1 PYR3    0.1490
     19 HZ         18.7315   31.1565  -68.4085 H         1 PYR3    0.0291
     20 H1         13.2124   31.5229  -72.2850 H         1 PYR3    0.4258
     21 H2         14.6560   31.4720  -71.4894 H         1 PYR3    0.4228
     22 H3         14.4932   32.3989  -72.8439 H         1 PYR3    0.4848
@<TRIPOS>BOND
     1    3    2 1
     2    3    4 2
     3    3   12 1
     4    2    5 1
     5    2    1 1
     6    5    6 1
     7    7    6 ar
     8    7    9 ar
     9    8   10 ar
    10    8    6 ar
    11   10   11 ar
    12   11    9 ar
    13   13    2 1
    14   14    5 1
    15   15    5 1
    16   16    7 1
    17   17    8 1
    18   18   10 1
    19   19   11 1
    20   20    1 1
    21   21    1 1
    22   22    1 1
@<TRIPOS>SUBSTRUCTURE
     1 PYR3     2 RESIDUE           4 B     PYR3     0 ROOT
