@<TRIPOS>MOLECULE
PTR2.pdb
27 27 1 0 0
SMALL
AMBER ff99SB


@<TRIPOS>ATOM
      1 N          -1.8780   -2.1100   -2.0730 N.4       1 PTR2   -0.8036
      2 CA         -2.7610   -1.7180   -0.9680 C.3       1 PTR2   -0.0195
      3 C          -4.1970   -1.8130   -1.4150 C.2       1 PTR2    0.9106
      4 O          -4.4820   -1.6290   -2.5730 O.co2     1 PTR2   -0.8423
      5 OXT        -5.1590   -2.1000   -0.5240 O.co2     1 PTR2   -0.8093
      6 CB         -2.4490   -0.2810   -0.5520 C.3       1 PTR2    0.0239
      7 CG         -1.0120   -0.1880   -0.1050 C.ar      1 PTR2   -0.3633
      8 CD1        -0.0220    0.1080   -1.0230 C.ar      1 PTR2   -0.0610
      9 CD2        -0.6890   -0.3910    1.2230 C.ar      1 PTR2   -0.0510
     10 CE1         1.2940    0.1950   -0.6160 C.ar      1 PTR2   -0.3400
     11 CE2         0.6280   -0.3120    1.6340 C.ar      1 PTR2   -0.3310
     12 CZ          1.6230   -0.0150    0.7150 C.ar      1 PTR2    0.3441
     13 OH          2.9180    0.0690    1.1180 O.3       1 PTR2   -0.3475
     14 P           3.1760    1.6000    1.5380 P.3       1 PTR2    1.3159
     15 O1P         2.2580    1.9700    2.6400 O.co2     1 PTR2   -0.8315
     16 O2P         4.6990    1.7740    2.0300 O.co2     1 PTR2   -0.8905
     17 O3P         2.9080    2.5570    0.2740 O.co2     1 PTR2   -0.8315
     18 HN3        -2.0610   -1.4690   -2.8310 H         1 PTR2    0.4368
     19 HN2        -0.9330   -1.9350   -1.7670 H         1 PTR2    0.4978
     20 HA         -2.6000   -2.3850   -0.1210 H         1 PTR2    0.0697
     21 HB1        -2.6100    0.3860   -1.3980 H         1 PTR2    0.0347
     22 HB2        -3.1040    0.0100    0.2700 H         1 PTR2    0.0407
     23 HD1        -0.2780    0.2730   -2.0580 H         1 PTR2    0.0840
     24 HD2        -1.4630   -0.6220    1.9390 H         1 PTR2    0.0840
     25 HE1         2.0680    0.4260   -1.3340 H         1 PTR2    0.1130
     26 HE2         0.8810   -0.4760    2.6700 H         1 PTR2    0.1130
     27 HN1        -2.0160   -3.0730   -2.3470 H         1 PTR2    0.4528
@<TRIPOS>BOND
     1    3    2 1
     2    3    4 2
     3    3    5 1
     4    2    6 1
     5    2   20 1
     6    2    1 1
     7    6    7 1
     8    6   21 1
     9    6   22 1
    10    8   10 ar
    11    8    7 ar
    12    8   23 1
    13    9   11 ar
    14    9    7 ar
    15    9   24 1
    16   10   12 ar
    17   10   25 1
    18   11   12 ar
    19   11   26 1
    20   12   13 1
    21   27    1 1
    22   19    1 1
    23   18    1 1
    24   15   14 2
    25   16   14 1
    26   17   14 1
    27   13   14 1
@<TRIPOS>SUBSTRUCTURE
     1 PTR2     2 RESIDUE           4 A     PTR2     0 ROOT
