@<TRIPOS>MOLECULE
2NP.pdb
25 24 1 0 0
SMALL
AMBER ff99SB


@<TRIPOS>ATOM
      1 C          -3.3557   -0.8088   -1.3303 C.2       1 2NP1        0.9196
      2 O          -3.6886   -1.9498   -1.5457 O.co2     1 2NP1       -0.8323
      3 OXT        -3.9024    0.1945   -2.0342 O.co2     1 2NP1       -0.7643
      4 CA         -2.3229   -0.5121   -0.2741 C.3       1 2NP1       -0.0395
      5 N          -2.3993   -1.5291    0.7826 N.4       1 2NP1       -0.8316
      6 CB         -0.9286   -0.5319   -0.9014 C.3       1 2NP1       -0.0784
      7 CG          0.1180   -0.2294    0.1714 C.3       1 2NP1       -0.0954
      8 CD          1.5126   -0.2498   -0.4566 C.3       1 2NP1       -0.0272
      9 CE          2.5442    0.0465    0.6020 C.2       1 2NP1       -0.1652
     10 CZ2         3.0873   -0.9477    1.2987 C.2       1 2NP1       -0.2150
     11 CZ1         2.9513    1.4338    0.8621 C.2       1 2NP1        0.8956
     12 OJ1         3.7825    1.6729    1.7149 O.co2     1 2NP1       -0.7843
     13 OJ2         2.4006    2.4418    0.1555 O.co2     1 2NP1       -0.9173
     14 HA         -2.5146    0.4715    0.1553 H         1 2NP1        0.0747
     15 HN1        -2.2159   -2.4185    0.3426 H         1 2NP1        0.4488
     16 HN2        -1.6299   -1.3529    1.4109 H         1 2NP1        0.4318
     17 HB1        -0.7372   -1.5148   -1.3302 H         1 2NP1        0.0517
     18 HB2        -0.8731    0.2228   -1.6859 H         1 2NP1        0.0737
     19 HG1        -0.0732    0.7529    0.5994 H         1 2NP1        0.0657
     20 HG2         0.0616   -0.9854    0.9552 H         1 2NP1        0.0357
     21 HD1         1.7043   -1.2344   -0.8839 H         1 2NP1        0.0217
     22 HD2         1.5696    0.5040   -1.2397 H         1 2NP1        0.0317
     23 HZ21        3.8270   -0.7352    2.0564 H         1 2NP1        0.1280
     24 HZ22        2.7887   -1.9677    1.1076 H         1 2NP1        0.0780
     25 HN3        -3.2895   -1.5166    1.2600 H         1 2NP1        0.4918
@<TRIPOS>BOND
     1    1    4 1
     2    1    2 2
     3    1    3 1
     4    4    6 1
     5    4   14 1
     6    4    5 1
     7    6    7 1
     8    6   17 1
     9    6   18 1
    10    8    9 1
    11    8    7 1
    12    8   21 1
    13    8   22 1
    14    9   11 2
    15    9   10 2
    16    7   19 1
    17    7   20 1
    18   11   12 2
    19   11   13 2
    20   10   23 1
    21   10   24 1
    22   15    5 1
    23   16    5 1
    24   25    5 1
@<TRIPOS>SUBSTRUCTURE
     1 2NP1        4 RESIDUE           4 A     2NP     0 ROOT
