@<TRIPOS>MOLECULE
TZA4.pdb
19 19 1 0 0
SMALL
AMBER ff99SB


@<TRIPOS>ATOM
      1 N          22.1880  -19.5900   47.7520 N.4       1 THA3   -0.8216
      2 CA         21.5330  -19.2300   49.0070 C.3       1 THA3   -0.0625
      3 C          20.1970  -19.9190   49.1360 C.2       1 THA3    0.9346
      4 O          19.7650  -20.6780   48.2650 O.co2     1 THA3   -0.8023
      5 CB         21.2930  -17.6940   49.0870 C.3       1 THA3   -0.1187
      6 CG         22.4780  -16.8130   49.0730 C.ar      1 THA3    0.0586
      7 CD1        23.2380  -16.5380   50.2220 C.ar      1 THA3   -0.2424
      8 CE2        24.0930  -15.3870   48.0550 C.ar      1 THA3    0.1033
      9 SE1        24.5410  -15.4660   49.7480 S.2       1 THA3   -0.0373
     10 OXT        19.5570  -19.7380   50.1450 O.co2     1 THA3   -0.7193
     11 ND2        22.9070  -16.2040   47.8170 N.ar      1 THA3   -0.1690
     12 HN1        23.0780  -19.1170   47.6880 H         1 THA3    0.4278
     13 HN2        22.3350  -20.5890   47.7240 H         1 THA3    0.4788
     14 HN3        21.6040  -19.3140   46.9760 H         1 THA3    0.4338
     15 HA         22.1680  -19.5580   49.8510 H         1 THA3    0.0917
     16 HB1        20.7270  -17.4530   50.0080 H         1 THA3    0.1247
     17 HB2        20.5970  -17.3900   48.2730 H         1 THA3    0.0707
     18 HD1        23.0530  -16.9180   51.2160 H         1 THA3    0.1940
     19 HE2        24.5970  -14.8280   47.2810 H         1 THA3    0.0561
@<TRIPOS>BOND
     1    1    2 1
     2    1   12 1
     3    1   13 1
     4    1   14 1
     5    2    3 1
     6    2    5 1
     7    2   15 1
     8    3    4 2
     9    3   10 1
    10    5    6 1
    11    5   16 1
    12    5   17 1
    13    6    7 ar
    14    6   11 ar
    15    7    9 ar
    16    7   18 1
    17    8    9 ar
    18    8   11 ar
    19    8   19 1
@<TRIPOS>SUBSTRUCTURE
     1 THA3     2 RESIDUE           4 A     THA3     0 ROOT
