@<TRIPOS>MOLECULE
ILE.pdb
 22 21 0 0 0
SMALL
GASTEIGER

@<TRIPOS>ATOM
      1  N          0.3940   -2.1670   -1.1420 N.4     1  ILE1        0.3872
      2  CA         0.8910   -0.7940   -1.1420 C.3     1  ILE1        0.0231
      3  O          3.0770   -1.8040   -1.1420 O.co2   1  ILE1       -0.2482
      4  CB         0.2860    0.0380    0.0610 C.3     1  ILE1       -0.0470
      5  CG1       -1.2720   -0.0100    0.1680 C.3     1  ILE1       -0.0543
      6  CG2        0.7250    1.5350    0.0430 C.3     1  ILE1       -0.0634
      7  CD1       -1.8720    0.5100    1.4910 C.3     1  ILE1       -0.0651
      8  C          2.4320   -0.7910   -1.1420 C.2     1  ILE1        0.3423
      9  OXT        3.1190    0.4630   -1.1420 O.co2   1  ILE1       -0.2482
     10  H3         1.0600   -3.0170   -1.1420 H       1  ILE1       -0.0889
     11  HA         0.5680   -0.3220   -2.0880 H       1  ILE1        0.0201
     12  HB         0.6840   -0.4160    0.9930 H       1  ILE1        0.0287
     13 HG11       -1.6180   -1.0560    0.0700 H       1  ILE1        0.0265
     14 HG12       -1.7320    0.5150   -0.6920 H       1  ILE1        0.0265
     15 HG21        1.8200    1.6680    0.0870 H       1  ILE1        0.0232
     16 HG22        0.3660    2.0630   -0.8610 H       1  ILE1        0.0232
     17 HG23        0.3450    2.0960    0.9160 H       1  ILE1        0.0232
     18 HD11       -1.4610   -0.0270    2.3670 H       1  ILE1        0.0230
     19 HD12       -1.6860    1.5880    1.6460 H       1  ILE1        0.0230
     20 HD13       -2.9690    0.3730    1.5130 H       1  ILE1        0.0230
     21  H1        -0.1820   -2.2590   -0.3170 H       1  ILE1       -0.0889
     22  H2        -0.2140   -2.2640   -1.9430 H       1  ILE1       -0.0889
@<TRIPOS>BOND
     1     8     9    1
     2     2     4    1
     3     2     8    1
     4     2    11    1
     5     4     5    1
     6     4     6    1
     7     4    12    1
     8     7    18    1
     9     7    19    1
    10     7    20    1
    11     5     7    1
    12     5    13    1
    13     5    14    1
    14     6    15    1
    15     6    16    1
    16     6    17    1
    17     1    22    1
    18     1    21    1
    19     1     2    1
    20     1    10    1
    21     3     8    2
