@<TRIPOS>MOLECULE
QU32.pdb
28 29 1 0 0
SMALL
AMBER ff99SB


@<TRIPOS>ATOM
      1 N          34.5970   29.7190   39.9000 N.4       1 QU32   -0.8196
      2 CA         34.6950   29.7890   41.3630 C.3       1 QU32   -0.0625
      3 C          33.3740   29.3980   42.0290 C.2       1 QU32    0.9346
      4 O          33.2320   28.2900   42.5560 O.co2     1 QU32   -0.7203
      5 CB         35.1710   31.1700   41.9430 C.3       1 QU32   -0.1497
      6 CG         36.6080   31.4890   41.6060 C.ar      1 QU32    0.4276
      7 CD1        36.9260   32.1750   40.4340 C.ar      1 QU32   -0.2403
      8 CE1        38.2490   32.4730   40.1200 C.ar      1 QU32   -0.0680
      9 CE2        38.9700   31.3950   42.1590 C.ar      1 QU32    0.4086
     10 CZ         39.2740   32.0810   40.9870 C.ar      1 QU32   -0.1493
     11 CJ1        41.5980   31.9350   41.5270 C.ar      1 QU32   -0.1270
     12 CJ2        41.2940   31.2390   42.7070 C.ar      1 QU32   -0.1110
     13 OXT        32.4400   30.1980   42.0400 O.co2     1 QU32   -0.8013
     14 ND2        37.6150   31.0450   42.5580 N.ar      1 QU32   -0.7350
     15 CH1        40.5690   32.3170   40.6500 C.ar      1 QU32   -0.1020
     16 CH2        39.9590   30.9230   43.0130 C.ar      1 QU32   -0.1813
     17 HA         35.4338   29.0471   41.6663 H         1 QU32    0.0927
     18 HB1        34.5360   31.9557   41.5337 H         1 QU32    0.0747
     19 HB2        35.0583   31.1547   43.0270 H         1 QU32    0.1267
     20 HD1        36.1366   32.4785   39.7623 H         1 QU32    0.1570
     21 HE1        38.4832   33.0052   39.2099 H         1 QU32    0.1460
     22 HJ1        42.6241   32.1773   41.2928 H         1 QU32    0.1400
     23 HJ2        42.0860   30.9461   43.3802 H         1 QU32    0.1390
     24 HH1        40.8064   32.7963   39.7117 H         1 QU32    0.1390
     25 HH2        39.7104   30.3331   43.8828 H         1 QU32    0.1380
     26 H1         35.4818   29.9819   39.4899 H         1 QU32    0.4328
     27 H2         33.8770   30.3511   39.5804 H         1 QU32    0.4788
     28 H3         34.3644   28.7760   39.6229 H         1 QU32    0.4298
@<TRIPOS>BOND
     1    3    2 1
     2    3    4 2
     3    3   13 1
     4    2    5 1
     5    2    1 1
     6    5    6 1
     7    7    8 ar
     8    7    6 ar
     9    8   10 ar
    10    9   16 ar
    11    9   10 ar
    12    9   14 ar
    13   15   11 ar
    14   15   10 ar
    15   16   12 ar
    16    6   14 ar
    17   11   12 ar
    18   17    2 1
    19   18    5 1
    20   19    5 1
    21   20    7 1
    22   21    8 1
    23   22   11 1
    24   23   12 1
    25   24   15 1
    26   25   16 1
    27   26    1 1
    28   27    1 1
    29   28    1 1
@<TRIPOS>SUBSTRUCTURE
     1 QU32     2 RESIDUE           4 B     QU32     0 ROOT
