@<TRIPOS>MOLECULE
LEF.pdb
22 21 1 0 0
SMALL
AMBER ff99SB


@<TRIPOS>ATOM
      1 CD1         2.0430   -0.6870   -0.3660 C.3       1 LEF1        0.1609
      2 CD2         1.3010    1.0510    1.2660 C.3       1 LEF1       -0.0971
      3 CG          0.8620   -0.1710    0.4580 C.3       1 LEF1       -0.1097
      4 CB         -0.2820    0.2210   -0.4780 C.3       1 LEF1       -0.0934
      5 N          -1.9170   -0.3170    1.2610 N.4       1 LEF1       -0.8356
      6 CA         -1.4610    0.7370    0.3460 C.3       1 LEF1       -0.0755
      7 C          -2.5890    1.1230   -0.5760 C.2       1 LEF1        0.9376
      8 O          -3.4220    0.3080   -0.8850 O.co2     1 LEF1       -0.8003
      9 F1          3.0890   -1.0450    0.4900 F         1 LEF1       -0.2453
     10 OXT        -2.6650    2.3750   -1.0540 O.co2     1 LEF1       -0.7083
     11 HD11        1.7310   -1.5570   -0.9430 H         1 LEF1        0.0447
     12 HD12        2.3820    0.0950   -1.0450 H         1 LEF1        0.0567
     13 HD21        1.6400    1.8340    0.5870 H         1 LEF1        0.0557
     14 HD22        0.4610    1.4180    1.8550 H         1 LEF1        0.0257
     15 HD23        2.1170    0.7720    1.9340 H         1 LEF1        0.0537
     16 HG          0.5240   -0.9540    1.1370 H         1 LEF1        0.0307
     17 HB1         0.0570    1.0040   -1.1570 H         1 LEF1        0.1187
     18 HB2        -0.5930   -0.6490   -1.0550 H         1 LEF1        0.0557
     19 H3         -2.1950   -1.0980    0.6880 H         1 LEF1        0.4888
     20 H2         -1.1080   -0.6150    1.7870 H         1 LEF1        0.4248
     21 HA         -1.1490    1.6070    0.9230 H         1 LEF1        0.0937
     22 H1         -2.6650   -0.0010    1.8620 H         1 LEF1        0.4178
@<TRIPOS>BOND
     1    7    6 1
     2    7    8 2
     3    7   10 1
     4    6    4 1
     5    6    5 1
     6    6   21 1
     7    4    3 1
     8    4   18 1
     9    4   17 1
    10    1    3 1
    11    1    9 1
    12    1   11 1
    13    1   12 1
    14    2    3 1
    15    2   13 1
    16    2   14 1
    17    2   15 1
    18    3   16 1
    19   19    5 1
    20   22    5 1
    21   20    5 1
@<TRIPOS>SUBSTRUCTURE
     1 LEF1        6 RESIDUE           4 A     LEF     0 ROOT
