@<TRIPOS>MOLECULE
TRX.pdb
28 29 1 0 0
SMALL
AMBER ff99SB


@<TRIPOS>ATOM
      1 N           1.5890    3.3530    5.7210 N.4       1 TRX1       -0.8326
      2 CA          1.3120    2.0570    6.2890 C.3       1 TRX1       -0.0645
      3 C           2.5980    1.3320    6.6550 C.2       1 TRX1        0.9346
      4 O           3.6320    1.4380    6.0040 O.co2     1 TRX1       -0.8063
      5 CB          0.4510    1.2100    5.3220 C.3       1 TRX1       -0.0202
      6 CG         -0.8140    1.8570    4.9180 C.ar      1 TRX1       -0.1782
      7 CD1        -0.9810    2.6860    3.8320 C.ar      1 TRX1       -0.0950
      8 CD2        -2.0730    1.7410    5.5710 C.ar      1 TRX1       -0.1220
      9 CE2        -2.9830    2.5160    4.8490 C.ar      1 TRX1        0.0057
     10 CE3        -2.5260    1.0460    6.7100 C.ar      1 TRX1       -0.0480
     11 NE1        -2.2920    3.0790    3.8000 N.ar      1 TRX1       -0.2384
     12 CZ2        -4.3280    2.6340    5.2120 C.ar      1 TRX1       -0.1820
     13 CZ3        -3.8710    1.1540    7.0850 C.ar      1 TRX1       -0.2270
     14 CH2        -4.7560    1.9370    6.3470 C.ar      1 TRX1        0.1461
     15 OH2        -6.0600    2.0220    6.7330 O.3       1 TRX1       -0.4971
     16 OXT         2.5200    0.5610    7.7670 O.co2     1 TRX1       -0.7133
     17 HA          0.7390    2.2070    7.2040 H         1 TRX1        0.0877
     18 HB1         1.0380    1.0150    4.4240 H         1 TRX1        0.0677
     19 HB2         0.2190    0.2600    5.8020 H         1 TRX1        0.1117
     20 HD1        -0.2130    2.9770    3.1300 H         1 TRX1        0.1710
     21 HE1        -2.6950    3.6940    3.1060 H         1 TRX1        0.3027
     22 HE3        -1.8450    0.4390    7.2870 H         1 TRX1        0.1470
     23 HZ2        -5.0120    3.2400    4.6370 H         1 TRX1        0.1560
     24 HZ3        -4.2250    0.6250    7.9570 H         1 TRX1        0.1390
     25 HH2        -6.1080    2.3860    7.6200 H         1 TRX1        0.4230
     26 H1          0.7200    3.8120    5.4880 H         1 TRX1        0.4278
     27 H2          2.0950    3.9130    6.3930 H         1 TRX1        0.4258
     28 H3          2.1460    3.2430    4.8860 H         1 TRX1        0.4808
@<TRIPOS>BOND
     1    3    2 1
     2    3    4 2
     3    3   16 2
     4    2    5 1
     5    2   17 1
     6    2    1 1
     7    5    6 1
     8    5   18 1
     9    5   19 1
    10    7    6 ar
    11    7   20 1
    12    7   11 ar
    13    8    9 ar
    14    8   10 ar
    15    8    6 ar
    16    9   12 ar
    17    9   11 ar
    18   10   13 ar
    19   10   22 1
    20   14   12 ar
    21   14   13 ar
    22   14   15 1
    23   12   23 1
    24   13   24 1
    25   26    1 1
    26   27    1 1
    27   28    1 1
    28   21   11 1
    29   25   15 1
@<TRIPOS>SUBSTRUCTURE
     1 TRX1        2 RESIDUE           4 A     TRX     0 ROOT
