@<TRIPOS>MOLECULE
ALA.pdb
27 27 1 0 0
SMALL
AMBER ff99SB


@<TRIPOS>ATOM
      1 N           2.4011    6.4156    2.1371 N.4       1 STYA   -0.8366
      2 CA          3.5561    5.9060    1.4077 C.3       1 STYA   -0.0665
      3 O           4.3937    7.9967    0.8477 O.co2     1 STYA   -0.8033
      4 CB          3.2015    5.5112   -0.0564 C.3       1 STYA   -0.0602
      5 C           4.4716    7.0082    1.5547 C.2       1 STYA    0.9356
      6 OXT         5.1844    7.0699    2.5408 O.co2     1 STYA   -0.7093
      7 CG          2.1826    4.4701   -0.1061 C.2       1 STYA   -0.2112
      8 CD          2.4590    3.1529   -0.0462 C.2       1 STYA   -0.0792
      9 CE          1.5366    2.0929   -0.0294 C.ar      1 STYA   -0.0728
     10 CZ1         2.0218    0.7570   -0.0131 C.ar      1 STYA   -0.1130
     11 CH1         1.1464   -0.3456   -0.0000 C.ar      1 STYA   -0.1300
     12 CJ         -0.2422   -0.1391    0.0013 C.ar      1 STYA   -0.1200
     13 CH2        -0.7517    1.1686   -0.0002 C.ar      1 STYA   -0.1320
     14 CZ2         0.1261    2.2676   -0.0122 C.ar      1 STYA   -0.1180
     15 HA          3.9548    5.0354    1.9284 H         1 STYA    0.0907
     16 HB1         2.8304    6.3928   -0.5791 H         1 STYA    0.0657
     17 HB2         4.1013    5.1531   -0.5566 H         1 STYA    0.1157
     18 HG          1.1493    4.7712   -0.1959 H         1 STYA    0.1040
     19 HD          3.5037    2.8820   -0.0068 H         1 STYA    0.1390
     20 HZ1         3.0878    0.5835   -0.0107 H         1 STYA    0.1360
     21 HH1         1.5431   -1.3501    0.0090 H         1 STYA    0.1360
     22 HJ         -0.9158   -0.9833    0.0034 H         1 STYA    0.1350
     23 HH2        -1.8193    1.3313    0.0079 H         1 STYA    0.1340
     24 HZ2        -0.2813    3.2678   -0.0083 H         1 STYA    0.1290
     25 H1          1.6602    5.7294    2.1172 H         1 STYA    0.4228
     26 H2          2.0801    7.2699    1.7044 H         1 STYA    0.4868
     27 H3          2.6627    6.6009    3.0949 H         1 STYA    0.4208
@<TRIPOS>BOND
     1    3    5 2
     2    5    2 1
     3    5    6 1
     4    2    1 1
     5    2    4 1
     6    4    7 1
     7    7    8 2
     8    8    9 1
     9    9   10 ar
    10    9   14 ar
    11   10   11 ar
    12   11   12 ar
    13   12   13 ar
    14   13   14 ar
    15   15    2 1
    16   16    4 1
    17   17    4 1
    18   18    7 1
    19   19    8 1
    20   20   10 1
    21   21   11 1
    22   22   12 1
    23   23   13 1
    24   24   14 1
    25   25    1 1
    26   26    1 1
    27   27    1 1
@<TRIPOS>SUBSTRUCTURE
     1 STYA     2 RESIDUE           4 A     STYA     0 ROOT
