@<TRIPOS>MOLECULE
4PH.pdb
26 26 1 0 0
SMALL
AMBER ff99SB


@<TRIPOS>ATOM
      1 N          22.1880  -19.5900   47.7520 N.4       1 4PH   -0.8356
      2 CA         21.5330  -19.2300   49.0070 C.3       1 4PH   -0.0675
      3 C          20.1970  -19.9190   49.1360 C.2       1 4PH    0.9366
      4 O          19.7650  -20.6780   48.2650 O.co2     1 4PH   -0.8033
      5 CB         21.2900  -17.6940   49.0850 C.3       1 4PH   -0.0491
      6 CG         22.5350  -16.7980   49.0580 C.ar      1 4PH   -0.1193
      7 CD1        23.2570  -16.5470   50.2290 C.ar      1 4PH   -0.1180
      8 CD2        22.9580  -16.2340   47.8510 C.ar      1 4PH   -0.1530
      9 CE1        24.3930  -15.7440   50.1890 C.ar      1 4PH   -0.1240
     10 CE2        24.0940  -15.4320   47.8130 C.ar      1 4PH   -0.1280
     11 CZ         24.8110  -15.1870   48.9830 C.ar      1 4PH   -0.0713
     12 OXT        19.5570  -19.7380   50.1450 O.co2     1 4PH   -0.7113
     13 CH         26.0690  -14.2990   48.9410 C.3       1 4PH   -0.0578
     14 HN1        23.0780  -19.1170   47.6880 H         1 4PH    0.4268
     15 HN2        22.3350  -20.5890   47.7240 H         1 4PH    0.4248
     16 HN3        21.6040  -19.3140   46.9760 H         1 4PH    0.4828
     17 HA         22.1680  -19.5580   49.8510 H         1 4PH    0.0887
     18 HB1        20.7270  -17.4530   50.0080 H         1 4PH    0.1147
     19 HB2        20.5970  -17.3900   48.2730 H         1 4PH    0.0697
     20 HD1        22.9440  -16.9800   51.1690 H         1 4PH    0.1440
     21 HD2        22.4120  -16.4290   46.9380 H         1 4PH    0.1290
     22 HH1        26.3630  -14.0360   49.9570 H         1 4PH    0.0477
     23 HH2        25.8550  -13.3920   48.3770 H         1 4PH    0.0507
     24 HH3        26.8810  -14.8430   48.4580 H         1 4PH    0.0477
     25 HE1        24.9508  -15.5527   51.0938 H         1 4PH    0.1390
     26 HE2        24.4199  -14.9998   46.8784 H         1 4PH    0.1360
@<TRIPOS>BOND
     1    1    2 1
     2    1   14 1
     3    1   15 1
     4    1   16 1
     5    2    3 1
     6    2    5 1
     7    2   17 1
     8    3    4 2
     9    3   12 1
    10    5    6 1
    11    5   18 1
    12    5   19 1
    13    6    7 ar
    14    6    8 ar
    15    7    9 ar
    16    7   20 1
    17    8   10 ar
    18    8   21 1
    19    9   11 ar
    20   10   11 ar
    21   11   13 1
    22   13   22 1
    23   13   23 1
    24   13   24 1
    25   25    9 1
    26   26   10 1
@<TRIPOS>SUBSTRUCTURE
     1 4PH     2 RESIDUE           4 A     4PH     0 ROOT
