@<TRIPOS>MOLECULE
DBY.pdb
24 24 1 0 0
SMALL
AMBER ff99SB


@<TRIPOS>ATOM
      1 N           0.2000    2.4710    1.7220 N.4       1 DBY1       -0.8346
      2 CA          1.4550    1.7860    1.3870 C.3       1 DBY1       -0.0755
      3 C           2.5030    2.8060    1.0250 C.2       1 DBY1        0.9386
      4 O           2.1780    3.8550    0.5210 O.co2     1 DBY1       -0.7973
      5 CB          1.2240    0.8500    0.2000 C.3       1 DBY1       -0.0461
      6 CG          0.1760   -0.1710    0.5620 C.ar      1 DBY1       -0.1493
      7 CD1        -1.1570    0.0930    0.3160 C.ar      1 DBY1       -0.0880
      8 CE1        -2.1210   -0.8400    0.6460 C.ar      1 DBY1       -0.0619
      9 CD2         0.5520   -1.3730    1.1330 C.ar      1 DBY1       -0.0460
     10 CE2        -0.4080   -2.3080    1.4710 C.ar      1 DBY1       -0.1169
     11 CZ         -1.7470   -2.0450    1.2250 C.ar      1 DBY1        0.1901
     12 OH         -2.6920   -2.9670    1.5500 O.3       1 DBY1       -0.4701
     13 BR1        -3.9460   -0.4780    0.3090 Br        1 DBY1       -0.0451
     14 BR2         0.1060   -3.9490    2.2570 Br        1 DBY1       -0.0611
     15 OXT         3.8000    2.5510    1.2640 O.co2     1 DBY1       -0.7083
     16 H3         -0.0730    2.9910    0.9010 H         1 DBY1        0.4848
     17 H2         -0.4950    1.7520    1.8540 H         1 DBY1        0.4238
     18 HA          1.7940    1.2070    2.2460 H         1 DBY1        0.0897
     19 HB1         0.8870    1.4280   -0.6590 H         1 DBY1        0.0727
     20 HB2         2.1570    0.3410   -0.0480 H         1 DBY1        0.1197
     21 HD1        -1.4470    1.0310   -0.1340 H         1 DBY1        0.1490
     22 HD2         1.5950   -1.5770    1.3240 H         1 DBY1        0.1650
     23 HH         -2.8070   -3.5350    0.7770 H         1 DBY1        0.4410
     24 H1          0.2950    3.0630    2.5340 H         1 DBY1        0.4268
@<TRIPOS>BOND
     1   13    8 1
     2   14   10 1
     3    3    2 1
     4    3    4 2
     5    3   15 1
     6    2    1 1
     7    2    5 1
     8    2   18 1
     9    5    6 1
    10    5   19 1
    11    5   20 1
    12    7    6 ar
    13    7    8 ar
    14    7   21 1
    15    9   10 ar
    16    9    6 ar
    17    9   22 1
    18    8   11 ar
    19   10   11 ar
    20   11   12 1
    21   16    1 1
    22   24    1 1
    23   17    1 1
    24   23   12 1
@<TRIPOS>SUBSTRUCTURE
     1 DBY1        2 RESIDUE           4 A     DBY     0 ROOT
