@<TRIPOS>MOLECULE
MTR6.pdb
30 31 1 0 0
SMALL
AMBER ff99SB


@<TRIPOS>ATOM
      1 N           1.6300   -2.7080   -0.4000 N.4       1 MTR6   -0.8326
      2 CA          2.1920   -1.3610   -0.4290 C.3       1 MTR6   -0.0635
      3 C           3.7310   -1.4220   -0.4280 C.2       1 MTR6    0.9336
      4 O           4.3230   -2.4650   -0.4050 O.co2     1 MTR6   -0.8083
      5 CB          1.6880   -0.5730    0.8120 C.3       1 MTR6   -0.0182
      6 CG          0.1820   -0.2940    0.8260 C.ar      1 MTR6   -0.1912
      7 CD1        -0.7900   -1.0600    1.5020 C.ar      1 MTR6   -0.0860
      8 CD2        -0.5150    0.6720    0.1300 C.ar      1 MTR6   -0.0930
      9 CE2        -1.8950    0.4860    0.3930 C.ar      1 MTR6   -0.0263
     10 CE3        -0.0790    1.7000   -0.7450 C.ar      1 MTR6   -0.0860
     11 NE1        -2.0920   -0.5880    1.2480 N.ar      1 MTR6   -0.2374
     12 CZ2        -2.8490    1.3350   -0.2090 C.ar      1 MTR6   -0.1440
     13 CZ3        -1.0400    2.5300   -1.3220 C.ar      1 MTR6   -0.1510
     14 CH2        -2.4050    2.3530   -1.0570 C.ar      1 MTR6   -0.0533
     15 OXT         4.4750   -0.2010   -0.4540 O.co2     1 MTR6   -0.7133
     16 CJ2        -3.4320    3.2960   -1.7120 C.3       1 MTR6   -0.0568
     17 HA          1.8730   -0.8550   -1.3600 H         1 MTR6    0.0877
     18 HB1         2.2080    0.4010    0.8840 H         1 MTR6    0.1097
     19 HB2         1.9720   -1.1040    1.7420 H         1 MTR6    0.0677
     20 HD1        -0.5640   -1.9040    2.1360 H         1 MTR6    0.1710
     21 HE1        -2.9660   -0.9480    1.6050 H         1 MTR6    0.3007
     22 HE3         0.9710    1.8370   -0.9590 H         1 MTR6    0.1430
     23 HZ2        -3.9030    1.2000   -0.0170 H         1 MTR6    0.1370
     24 H1          1.0510   -2.7910   -1.2230 H         1 MTR6    0.4248
     25 H2          1.0180   -2.7590    0.4020 H         1 MTR6    0.4288
     26 H3          2.2090   -3.5230   -0.3820 H         1 MTR6    0.4798
     27 HJ21       -3.7210    2.8990   -2.6850 H         1 MTR6    0.0477
     28 HJ22       -2.9900    4.2840   -1.8380 H         1 MTR6    0.0517
     29 HJ23       -4.3130    3.3710   -1.0740 H         1 MTR6    0.0417
     30 HZ3        -0.7268    3.3232   -1.9847 H         1 MTR6    0.1360
@<TRIPOS>BOND
     1    3    2 1
     2    3    4 2
     3    3   15 1
     4    2    5 1
     5    2   17 1
     6    2    1 1
     7    5    6 1
     8    5   18 1
     9    5   19 1
    10    7    6 ar
    11    7   20 1
    12    7   11 ar
    13    8    9 ar
    14    8   10 ar
    15    8    6 ar
    16    9   12 ar
    17    9   11 ar
    18   10   13 ar
    19   10   22 1
    20   14   16 1
    21   14   12 ar
    22   14   13 ar
    23   16   27 1
    24   16   28 1
    25   16   29 1
    26   12   23 1
    27   24    1 1
    28   25    1 1
    29   26    1 1
    30   21   11 1
    31   30   13 1
@<TRIPOS>SUBSTRUCTURE
     1 MTR6     2 RESIDUE           4 A     MTR6     0 ROOT
