@<TRIPOS>MOLECULE
C2N.pdb
13 12 1 0 0
SMALL
AMBER ff99SB


@<TRIPOS>ATOM
      1 N           0.4321    0.2550   -1.3700 N.4       1 C2N1       -0.8306
      2 CA          0.5482   -0.0976    0.0516 C.3       1 C2N1       -0.1025
      3 C           1.5863    0.7791    0.7038 C.2       1 C2N1        0.9446
      4 O           2.5057    1.2136    0.0502 O.co2     1 C2N1       -0.7873
      5 CB          0.9628   -1.5646    0.1833 C.3       1 C2N1        0.0320
      6 CL         -0.3089   -2.6171   -0.5416 Cl        1 C2N1       -0.2234
      7 OXT         1.4876    1.0797    2.0079 O.co2     1 C2N1       -0.6983
      8 HA         -0.4152    0.0532    0.5429 H         1 C2N1        0.1047
      9 HB1         1.0834   -1.8137    1.2387 H         1 C2N1        0.1297
     10 HB2         1.9081   -1.7229   -0.3366 H         1 C2N1        0.0867
     11 H1         -0.2901   -0.3237   -1.7751 H         1 C2N1        0.4288
     12 H2          1.2922    0.0658   -1.8613 H         1 C2N1        0.4858
     13 H3          0.1561    1.2195   -1.4817 H         1 C2N1        0.4298
@<TRIPOS>BOND
     1    3    2 1
     2    3    4 2
     3    3    7 2
     4    2    5 1
     5    2    8 1
     6    2    1 1
     7    5    6 1
     8    5    9 1
     9    5   10 1
    10   11    1 1
    11   12    1 1
    12   13    1 1
@<TRIPOS>SUBSTRUCTURE
     1 C2N1        2 RESIDUE           4 A     C2N     0 ROOT
