@<TRIPOS>MOLECULE
6CL.pdb
27 26 1 0 0
SMALL
AMBER ff99SB


@<TRIPOS>ATOM
      1 N           1.3535   -1.6622    1.7413 N.4       1 6CL1       -0.8386
      2 CA          2.1718   -2.5545    2.5635 C.3       1 6CL1       -0.0645
      3 CB          2.4855   -3.8333    1.7767 C.3       1 6CL1       -0.0884
      4 CG          1.2205   -4.6105    1.3887 C.3       1 6CL1       -0.1004
      5 CD          1.5158   -5.8794    0.5789 C.3       1 6CL1       -0.0944
      6 CE          0.2873   -6.7256    0.2369 C.3       1 6CL1       -0.0355
      7 CZ         -0.6958   -5.9765   -0.6382 C.2       1 6CL1        0.9146
      8 OH1        -1.8139   -5.6250   -0.2840 O.co2     1 6CL1       -0.8333
      9 OH2        -0.1968   -5.7146   -1.8727 O.co2     1 6CL1       -0.7403
     10 NZ         -0.3917   -7.0757    1.5246 N.4       1 6CL1       -0.8366
     11 C           3.4389   -1.8031    2.9177 C.2       1 6CL1        0.9326
     12 O           3.7371   -0.6817    2.5325 O.co2     1 6CL1       -0.8003
     13 OXT         4.2100   -2.5358    3.7616 O.co2     1 6CL1       -0.7403
     14 HA          1.6315   -2.8103    3.4741 H         1 6CL1        0.0797
     15 HB1         3.1156   -4.4767    2.3908 H         1 6CL1        0.1167
     16 HB2         3.0297   -3.5675    0.8704 H         1 6CL1        0.0577
     17 HG1         0.6965   -4.8950    2.3012 H         1 6CL1        0.0487
     18 HG2         0.5751   -3.9591    0.7995 H         1 6CL1        0.0437
     19 HD1         1.9934   -5.5820   -0.3550 H         1 6CL1        0.1047
     20 HD2         2.2152   -6.4956    1.1445 H         1 6CL1        0.0397
     21 HE          0.6030   -7.6381   -0.2686 H         1 6CL1        0.1017
     22 H1          0.4958   -2.1311    1.4847 H         1 6CL1        0.4538
     23 H2          1.8630   -1.4120    0.9054 H         1 6CL1        0.4528
     24 H3          1.1355   -0.8259    2.2649 H         1 6CL1        0.4708
     25 HZ1        -1.2096   -7.6357    1.3326 H         1 6CL1        0.4358
     26 HZ2         0.2445   -7.5978    2.1093 H         1 6CL1        0.4318
     27 HZ3        -0.6683   -6.2283    2.0007 H         1 6CL1        0.4848
@<TRIPOS>BOND
     1   11    2 1
     2   11   12 2
     3   11   13 1
     4    2    3 1
     5    2   14 1
     6    2    1 1
     7    3    4 1
     8    3   15 1
     9    3   16 1
    10    5    6 1
    11    5    4 1
    12    5   19 1
    13    5   20 1
    14    6    7 1
    15    6   21 1
    16    6   10 1
    17    4   17 1
    18    4   18 1
    19    7    8 2
    20    7    9 2
    21   22    1 1
    22   23    1 1
    23   24    1 1
    24   25   10 1
    25   26   10 1
    26   27   10 1
@<TRIPOS>SUBSTRUCTURE
     1 6CL1        2 RESIDUE           4 A     6CL     0 ROOT
