@<TRIPOS>MOLECULE
DAH.pdb
25 25 1 0 0
SMALL
AMBER ff99SB


@<TRIPOS>ATOM
      1 N          18.4420  -18.8060   49.2340 N.4       1 DAH   -0.8356
      2 CA         19.3180  -17.9350   48.4910 C.3       1 DAH   -0.0695
      3 C          20.7190  -17.9260   49.0580 C.2       1 DAH    0.9366
      4 O          21.6210  -17.3120   48.4830 O.co2     1 DAH   -0.7113
      5 CB         18.7410  -16.5300   48.4890 C.3       1 DAH   -0.0471
      6 CG         17.2510  -16.5380   48.3160 C.ar      1 DAH   -0.1083
      7 CD2        16.4090  -16.7720   49.3900 C.ar      1 DAH   -0.1530
      8 CD1        16.6860  -16.3880   47.0570 C.ar      1 DAH   -0.1820
      9 CE2        15.0430  -16.8670   49.2090 C.ar      1 DAH   -0.1840
     10 CE1        15.3140  -16.4840   46.8640 C.ar      1 DAH    0.1111
     11 OE1        14.7610  -16.3340   45.5540 O.3       1 DAH   -0.4701
     12 CZ         14.4930  -16.7220   47.9350 C.ar      1 DAH    0.1061
     13 OZ         13.1320  -16.8370   47.7030 O.3       1 DAH   -0.4691
     14 OXT        21.0010  -18.6330   50.2680 O.co2     1 DAH   -0.8013
     15 HN1        18.8920  -19.7000   49.3710 H         1 DAH    0.4838
     16 HN2        18.2370  -18.3910   50.1320 H         1 DAH    0.4268
     17 HN3        17.5820  -18.9370   48.7200 H         1 DAH    0.4258
     18 HA         19.3650  -18.2900   47.4610 H         1 DAH    0.0887
     19 HB1        19.1880  -15.9670   47.6700 H         1 DAH    0.1157
     20 HB2        18.9870  -16.0430   49.4320 H         1 DAH    0.0717
     21 HD2        16.8250  -16.8810   50.3810 H         1 DAH    0.1340
     22 HD1        17.3270  -16.1930   46.2100 H         1 DAH    0.1490
     23 HE1        15.1230  -17.0080   44.9750 H         1 DAH    0.4220
     24 HE2        14.3990  -17.0540   50.0560 H         1 DAH    0.1410
     25 HZ         12.6630  -16.1740   48.2150 H         1 DAH    0.4190
@<TRIPOS>BOND
     1    1    2 1
     2    1   15 1
     3    1   16 1
     4    1   17 1
     5    2    3 1
     6    2    5 1
     7    2   18 1
     8    3    4 2
     9    3   14 1
    10    5    6 1
    11    5   19 1
    12    5   20 1
    13    6    7 ar
    14    6    8 ar
    15    7    9 ar
    16    7   21 1
    17    8   10 ar
    18    8   22 1
    19    9   12 ar
    20    9   24 1
    21   10   11 1
    22   10   12 ar
    23   11   23 1
    24   12   13 1
    25   13   25 1
@<TRIPOS>SUBSTRUCTURE
     1 DAH     2 RESIDUE           4 A     DAH     0 ROOT
