@<TRIPOS>MOLECULE
VAH.pdb
20 19 1 0 0
SMALL
AMBER ff99SB


@<TRIPOS>ATOM
      1 N          19.6271   -5.1554   47.7687 N.4       1 VAH349     -0.8296
      2 CA         20.9295   -5.7978   47.6130 C.3       1 VAH349     -0.0995
      3 C          22.0367   -4.7418   47.4557 C.2       1 VAH349      0.9356
      4 O          21.7728   -3.5742   47.5260 O.co2     1 VAH349     -0.7973
      5 CB         21.0225   -6.6262   46.3494 C.3       1 VAH349      0.1401
      6 CG2        22.3656   -7.2716   46.2467 C.3       1 VAH349     -0.1194
      7 OG1        20.0292   -7.6603   46.4050 O.3       1 VAH349     -0.6418
      8 CD         22.4449   -8.0867   44.9432 C.3       1 VAH349     -0.0941
      9 OXT        23.3864   -5.1532   47.2247 O.co2     1 VAH349     -0.7173
     10 HA         21.1366   -6.4252   48.4795 H         1 VAH349      0.0887
     11 HB         20.8490   -5.9945   45.4788 H         1 VAH349      0.0937
     12 HG1        20.0239   -8.0507   47.2817 H         1 VAH349      0.4150
     13 HG21       23.1394   -6.5033   46.2425 H         1 VAH349      0.1207
     14 HG22       22.5168   -7.9331   47.1001 H         1 VAH349      0.0387
     15 HD1        22.4133   -7.4106   44.0888 H         1 VAH349      0.0457
     16 HD2        21.6014   -8.7754   44.8926 H         1 VAH349      0.0287
     17 HD3        23.3760   -8.6521   44.9256 H         1 VAH349      0.0447
     18 H3         19.4113   -4.3229   47.2391 H         1 VAH349      0.4828
     19 H1         18.9302   -5.8450   47.5259 H         1 VAH349      0.4388
     20 H2         19.5104   -4.9342   48.7472 H         1 VAH349      0.4268
@<TRIPOS>BOND
     1    3    2 1
     2    3    4 2
     3    3    9 2
     4    2    5 1
     5    2   10 1
     6    2    1 1
     7    5    6 1
     8    5   11 1
     9    5    7 1
    10    8    6 1
    11    8   15 1
    12    8   16 1
    13    8   17 1
    14    6   13 1
    15    6   14 1
    16   18    1 1
    17   12    7 1
    18   19    1 1
    19   20    1 1
@<TRIPOS>SUBSTRUCTURE
     1 VAH349      2 RESIDUE           4 E     VAH     0 ROOT
