@<TRIPOS>MOLECULE
TFG2.pdb
23 23 1 0 0
SMALL
AMBER ff99SB


@<TRIPOS>ATOM
      1 N           2.3530    4.1250    1.3590 N.4       1 TFG2   -0.8266
      2 CA          2.0910    3.7120   -0.0200 C.3       1 TFG2   -0.0422
      3 C           1.4560    4.8360   -0.6970 C.2       1 TFG2    0.9376
      4 O           0.5000    5.4300   -0.2130 O.co2     1 TFG2   -0.8063
      5 CB          1.3430    2.4120   -0.0130 C.ar      1 TFG2   -0.0663
      6 CG1         2.0630    1.1890   -0.0100 C.ar      1 TFG2   -0.1653
      7 CG2        -0.0720    2.3400    0.0260 C.ar      1 TFG2   -0.0880
      8 CD1         1.3970   -0.0510   -0.0030 C.ar      1 TFG2   -0.0920
      9 CD2        -0.7400    1.1020    0.0120 C.ar      1 TFG2   -0.1020
     10 CE         -0.0060   -0.0950   -0.0010 C.ar      1 TFG2   -0.1160
     11 OXT         1.9040    5.2740   -1.7430 O.co2     1 TFG2   -0.6913
     12 CH1         3.6030    1.2190   -0.0140 C.3       1 TFG2    0.6852
     13 FH1         4.0770    0.0730    0.5200 F         1 TFG2   -0.2273
     14 FH2         4.0470    1.3430   -1.2830 F         1 TFG2   -0.2223
     15 FH3         4.0340    2.2680    0.7180 F         1 TFG2   -0.2733
     16 HA          2.9970    3.5220   -0.5950 H         1 TFG2    0.1107
     17 HG2        -0.6480    3.2530    0.0680 H         1 TFG2    0.1880
     18 HD1         1.9660   -0.9690    0.0010 H         1 TFG2    0.1560
     19 HD2        -1.8200    1.0730    0.0110 H         1 TFG2    0.1510
     20 HE         -0.5190   -1.0450   -0.0100 H         1 TFG2    0.1480
     21 H1          2.4630    3.3060    1.9400 H         1 TFG2    0.4278
     22 H2          3.1980    4.6760    1.3910 H         1 TFG2    0.4368
     23 H3          1.5780    4.6760    1.6990 H         1 TFG2    0.4798
@<TRIPOS>BOND
     1    3    2 1
     2    3    4 2
     3    3   11 1
     4    2    5 1
     5    2   16 1
     6    2    1 1
     7    5    6 ar
     8    5    7 ar
     9    8   10 ar
    10    8    6 ar
    11    8   18 1
    12    9   10 ar
    13    9    7 ar
    14    9   19 1
    15   10   20 1
    16   12    6 1
    17   12   13 1
    18   12   14 1
    19   12   15 1
    20    7   17 1
    21   21    1 1
    22   22    1 1
    23   23    1 1
@<TRIPOS>SUBSTRUCTURE
     1 TFG2     2 RESIDUE           4 A     TFG2     0 ROOT
