@<TRIPOS>MOLECULE
HVA.pdb
20 19 1 0 0
SMALL
AMBER ff99SB


@<TRIPOS>ATOM
      1 N           0.1050    0.6360    1.7190 N.4       1 HVA1       -0.8276
      2 CA          0.4510   -0.0020    0.4420 C.3       1 HVA1       -0.0565
      3 C           1.0620    1.0220   -0.4810 C.2       1 HVA1        0.9326
      4 O           0.8770    2.1990   -0.2840 O.co2     1 HVA1       -0.8023
      5 CB         -0.8140   -0.5760   -0.2000 C.3       1 HVA1        0.1548
      6 CG1        -1.8210    0.5520   -0.4380 C.3       1 HVA1       -0.1281
      7 CG2        -0.4560   -1.2310   -1.5350 C.3       1 HVA1       -0.1291
      8 OG3        -1.3910   -1.5520    0.6700 O.3       1 HVA1       -0.6558
      9 OXT         1.8110    0.6250   -1.5220 O.co2     1 HVA1       -0.7153
     10 HA          1.1660   -0.8050    0.6170 H         1 HVA1        0.0967
     11 HG11       -1.3810    1.2970   -1.1030 H         1 HVA1        0.0927
     12 HG12       -2.7220    0.1430   -0.8960 H         1 HVA1        0.0437
     13 HG13       -2.0760    1.0190    0.5130 H         1 HVA1        0.0287
     14 HG21        0.2610   -2.0340   -1.3650 H         1 HVA1        0.0477
     15 HG22       -1.3580   -1.6400   -1.9930 H         1 HVA1        0.0377
     16 HG23       -0.0170   -0.4860   -2.1990 H         1 HVA1        0.1097
     17 HG3        -2.1980   -1.9580    0.3270 H         1 HVA1        0.4230
     18 H1         -0.3310   -0.0620    2.3050 H         1 HVA1        0.4398
     19 H2         -0.5570    1.3840    1.5830 H         1 HVA1        0.4798
     20 H3          0.9320    0.9660    2.1930 H         1 HVA1        0.4288
@<TRIPOS>BOND
     1    3    2 1
     2    3    4 2
     3    3    9 2
     4    2    5 1
     5    2   10 1
     6    2    1 1
     7    5    6 1
     8    5    7 1
     9    5    8 1
    10    6   11 1
    11    6   12 1
    12    6   13 1
    13    7   14 1
    14    7   15 1
    15    7   16 1
    16   18    1 1
    17   19    1 1
    18   20    1 1
    19   17    8 1
@<TRIPOS>SUBSTRUCTURE
     1 HVA1        2 RESIDUE           4 A     HVA     0 ROOT
