@<TRIPOS>MOLECULE
CCS.pdb
19 18 1 0 0
SMALL
AMBER ff99SB


@<TRIPOS>ATOM
      1 N          -1.3409   -1.6488    0.9562 N.4       1 CCS1       -0.8586
      2 CA         -1.7488   -1.0054   -0.2994 C.3       1 CCS1       -0.0375
      3 CB         -0.5866   -1.0406   -1.2922 C.3       1 CCS1       -0.0133
      4 SG          0.8354   -0.1599   -0.5945 S.3       1 CCS1       -0.3452
      5 CD          2.0262   -0.3593   -1.9470 C.3       1 CCS1       -0.1293
      6 CE          3.3221    0.3155   -1.5789 C.2       1 CCS1        0.9216
      7 OZ1         3.4314    0.8737   -0.5133 O.co2     1 CCS1       -0.8773
      8 OZ2         4.3557    0.2956   -2.4350 O.co2     1 CCS1       -0.7643
      9 C          -2.9306   -1.7375   -0.8782 C.2       1 CCS1        0.9206
     10 O          -3.0628   -2.9216   -0.6797 O.co2     1 CCS1       -0.8233
     11 OXT        -3.8344   -1.0759   -1.6165 O.co2     1 CCS1       -0.7663
     12 H3         -0.4908   -1.1937    1.2537 H         1 CCS1        0.5058
     13 H2         -1.0950   -2.5993    0.7264 H         1 CCS1        0.4468
     14 HA         -2.0257    0.0310   -0.1023 H         1 CCS1        0.0847
     15 HB1        -0.3097   -2.0769   -1.4893 H         1 CCS1        0.0717
     16 HB2        -0.8895   -0.5633   -2.2233 H         1 CCS1        0.1127
     17 HD1         2.2050   -1.4204   -2.1188 H         1 CCS1        0.0567
     18 HD2         1.6261    0.0935   -2.8532 H         1 CCS1        0.0807
     19 H1         -2.0641   -1.6025    1.6596 H         1 CCS1        0.4118
@<TRIPOS>BOND
     1    9    2 1
     2    9   10 2
     3    9   11 1
     4    2    3 1
     5    2   14 1
     6    2    1 1
     7    3   15 1
     8    3   16 1
     9    3    4 1
    10    5    6 1
    11    5   17 1
    12    5   18 1
    13    5    4 1
    14    6    7 2
    15    6    8 2
    16   19    1 1
    17   13    1 1
    18   12    1 1
@<TRIPOS>SUBSTRUCTURE
     1 CCS1        2 RESIDUE           4 A     CCS     0 ROOT
