@<TRIPOS>MOLECULE
BB8.pdb
24 24 1 0 0
SMALL
NO_CHARGES


@<TRIPOS>ATOM
      1 N          22.1880  -19.5900   47.7520 N.4       1 BB8     0.0000
      2 CA         21.5330  -19.2300   49.0070 C.3       1 BB8     0.0000
      3 C          20.1970  -19.9190   49.1360 C.2       1 BB8     0.0000
      4 O          19.7650  -20.6780   48.2650 O.co2     1 BB8     0.0000
      5 CB         21.2900  -17.6940   49.0850 C.3       1 BB8     0.0000
      6 CG1        22.5350  -16.7980   49.0580 C.ar      1 BB8     0.0000
      7 OG2        20.5140  -17.3920   50.2480 O.3       1 BB8     0.0000
      8 CD1        23.2570  -16.5470   50.2290 C.ar      1 BB8     0.0000
      9 CD2        22.9580  -16.2340   47.8510 C.ar      1 BB8     0.0000
     10 CE1        24.3930  -15.7440   50.1890 C.ar      1 BB8     0.0000
     11 CE2        24.0940  -15.4320   47.8130 C.ar      1 BB8     0.0000
     12 CZ         24.8110  -15.1870   48.9830 C.ar      1 BB8     0.0000
     13 OXT        19.5570  -19.7380   50.1450 O.co2     1 BB8     0.0000
     14 HN1        23.0780  -19.1170   47.6880 H         1 BB8     0.0000
     15 HN2        22.3350  -20.5890   47.7240 H         1 BB8     0.0000
     16 HN3        21.6040  -19.3140   46.9760 H         1 BB8     0.0000
     17 HA         22.1680  -19.5580   49.8510 H         1 BB8     0.0000
     18 HB         20.6840  -17.4240   48.2200 H         1 BB8     0.0000
     19 HG2        20.9330  -16.6790   50.7360 H         1 BB8     0.0000
     20 HD1        22.9440  -16.9800   51.1690 H         1 BB8     0.0000
     21 HD2        22.4010  -16.4220   46.9450 H         1 BB8     0.0000
     22 HE1        24.9510  -15.5530   51.0940 H         1 BB8     0.0000
     23 HE2        24.4200  -15.0000   46.8780 H         1 BB8     0.0000
     24 HZ         25.7010  -14.5590   48.9530 H         1 BB8     0.0000
@<TRIPOS>BOND
     1    3    2 1
     2    3    4 2
     3    3   13 1
     4    2    5 1
     5    2   17 1
     6    2    1 1
     7    5    6 1
     8    5   18 1
     9    5    7 1
    10    8   10 ar
    11    8    6 ar
    12    8   20 1
    13    9   11 ar
    14    9    6 ar
    15    9   21 1
    16   10   12 ar
    17   10   22 1
    18   11   12 ar
    19   11   23 1
    20   12   24 1
    21   19    7 1
    22   14    1 1
    23   15    1 1
    24   16    1 1
@<TRIPOS>SUBSTRUCTURE
     1 BB8      2 RESIDUE           4 A     BB8      0 ROOT
