@<TRIPOS>MOLECULE
CTE.pdb
27 28 1 0 0
SMALL
AMBER ff99SB


@<TRIPOS>ATOM
      1 N           2.3910   -0.3740   -0.8250 N.4       1 CTE1       -0.8326
      2 CA          2.4800   -1.2860    0.3230 C.3       1 CTE1       -0.0665
      3 C           3.6720   -2.1930    0.1530 C.2       1 CTE1        0.9346
      4 O           4.1570   -2.3540   -0.9410 O.co2     1 CTE1       -0.8063
      5 CB          1.2060   -2.1300    0.4050 C.3       1 CTE1       -0.0192
      6 CG          0.0290   -1.2350    0.6970 C.ar      1 CTE1       -0.1902
      7 CD1        -0.7730   -0.6500   -0.2070 C.ar      1 CTE1       -0.0810
      8 CD2        -0.4600   -0.8440    2.0210 C.ar      1 CTE1       -0.0780
      9 CE2        -1.5680   -0.0060    1.7940 C.ar      1 CTE1       -0.0293
     10 CE3        -0.0580   -1.1260    3.3280 C.ar      1 CTE1       -0.0850
     11 NE1        -1.7320    0.0880    0.4300 N.ar      1 CTE1       -0.2264
     12 CZ2        -2.2490    0.5340    2.8810 C.ar      1 CTE1        0.0004
     13 CZ3        -0.7440   -0.5910    4.3810 C.ar      1 CTE1       -0.1440
     14 CH2        -1.8390    0.2340    4.1630 C.ar      1 CTE1       -0.1000
     15 CL         -3.6220    1.5650    2.6240 Cl        1 CTE1       -0.0914
     16 OXT         4.1990   -2.8150    1.2190 O.co2     1 CTE1       -0.7123
     17 HN1         2.2870   -0.8870   -1.6870 H         1 CTE1        0.4808
     18 HN2         1.6380    0.2870   -0.7040 H         1 CTE1        0.4258
     19 HN3         3.2550    0.1470   -0.8750 H         1 CTE1        0.4258
     20 HA          2.5910   -0.7070    1.2400 H         1 CTE1        0.0877
     21 HB1         1.0470   -2.6410   -0.5450 H         1 CTE1        0.0677
     22 HB2         1.3080   -2.8670    1.2000 H         1 CTE1        0.1127
     23 HD1        -0.6750   -0.7490   -1.2780 H         1 CTE1        0.1730
     24 HE1        -2.4250    0.6020   -0.0130 H         1 CTE1        0.3107
     25 HE3         0.7940   -1.7670    3.5060 H         1 CTE1        0.1490
     26 HZ3        -0.4310   -0.8100    5.3910 H         1 CTE1        0.1420
     27 HH2        -2.3720    0.6500    5.0050 H         1 CTE1        0.1500
@<TRIPOS>BOND
     1    3    2 1
     2    3    4 2
     3    3   16 2
     4    2    5 1
     5    2   20 1
     6    2    1 1
     7    5    6 1
     8    5   21 1
     9    5   22 1
    10    7    6 ar
    11    7   23 1
    12    7   11 ar
    13    8    9 ar
    14    8   10 ar
    15    8    6 ar
    16    9   12 ar
    17    9   11 ar
    18   10   13 ar
    19   10   25 1
    20   14   12 ar
    21   14   13 ar
    22   14   27 1
    23   15   12 1
    24   13   26 1
    25   24   11 1
    26   17    1 1
    27   18    1 1
    28   19    1 1
@<TRIPOS>SUBSTRUCTURE
     1 CTE1        2 RESIDUE           4 A     CTE     0 ROOT
