@<TRIPOS>MOLECULE
APM.pdb
29 29 1 0 0
SMALL
NO_CHARGES


@<TRIPOS>ATOM
      1 N          -1.5790   -1.0860    1.5790 N.4       1 APM1        0.0000
      2 CA         -1.9560   -0.9150    0.1710 C.3       1 APM1        0.0000
      3 C          -3.1950   -1.7230   -0.1200 C.2       1 APM1        0.0000
      4 O          -3.4110   -2.7400    0.4940 O.co2     1 APM1        0.0000
      5 CB         -0.8140   -1.3930   -0.7260 C.3       1 APM1        0.0000
      6 CG          0.4240   -0.5860   -0.4350 C.ar      1 APM1        0.0000
      7 CD1         0.6710    0.5740   -1.1400 C.ar      1 APM1        0.0000
      8 CD2         1.3140   -1.0110    0.5350 C.ar      1 APM1        0.0000
      9 CE1         1.8150    1.3230   -0.8670 C.ar      1 APM1        0.0000
     10 CE2         2.4530   -0.2750    0.8070 C.ar      1 APM1        0.0000
     11 CZ          2.7090    0.8890    0.1120 C.ar      1 APM1        0.0000
     12 CH          2.0820    2.5720   -1.6160 C.2       1 APM1        0.0000
     13 NJ1         1.2470    2.9750   -2.5290 N.pl3     1 APM1        0.0000
     14 NJ2         3.2160    3.3080   -1.3460 N.pl3     1 APM1        0.0000
     15 OXT        -4.0600   -1.3100   -1.0600 O.co2     1 APM1        0.0000
     16 H3         -0.6950   -0.6160    1.7010 H         1 APM1        0.0000
     17 H2         -1.4060   -2.0710    1.7140 H         1 APM1        0.0000
     18 HA         -2.1550    0.1390   -0.0260 H         1 APM1        0.0000
     19 HB1        -0.6150   -2.4470   -0.5290 H         1 APM1        0.0000
     20 HB2        -1.0940   -1.2660   -1.7710 H         1 APM1        0.0000
     21 HD1        -0.0240    0.9050   -1.8980 H         1 APM1        0.0000
     22 HD2         1.1190   -1.9210    1.0810 H         1 APM1        0.0000
     23 HE2         3.1440   -0.6130    1.5650 H         1 APM1        0.0000
     24 HZ          3.5980    1.4630    0.3250 H         1 APM1        0.0000
     25 HJ12        1.4220    3.7940   -3.0200 H         1 APM1        0.0000
     26 HJ21        3.3900    4.1260   -1.8370 H         1 APM1        0.0000
     27 HJ22        3.8380    3.0080   -0.6660 H         1 APM1        0.0000
     28 H1         -2.2870   -0.7340    2.2080 H         1 APM1        0.0000
     29 HJ11        0.4160    2.4360   -2.7260 H         1 APM1        0.0000
@<TRIPOS>BOND
     1    3    2 1
     2    3    4 2
     3    3   15 1
     4    2    1 1
     5    2    5 1
     6    2   18 1
     7    5    6 1
     8    5   19 1
     9    5   20 1
    10    7    6 ar
    11    7    9 ar
    12    7   21 1
    13    8   10 ar
    14    8    6 ar
    15    8   22 1
    16    9   11 ar
    17    9   12 1
    18   10   11 ar
    19   10   23 1
    20   12   13 2
    21   12   14 2
    22   11   24 1
    23   16    1 1
    24   28    1 1
    25   17    1 1
    26   25   13 1
    27   29   13 1
    28   26   14 1
    29   27   14 1
@<TRIPOS>SUBSTRUCTURE
     1 APM1        2 RESIDUE           4 A     APM     0 ROOT
