@<TRIPOS>MOLECULE
MP34.pdb
29 29 1 0 0
SMALL
AMBER ff99SB


@<TRIPOS>ATOM
      1 N          22.1880  -19.5900   47.7520 N.4       1 MP341       -0.8356
      2 CA         21.5330  -19.2300   49.0070 C.3       1 MP341       -0.0675
      3 C          20.1970  -19.9190   49.1360 C.2       1 MP341        0.9356
      4 O          19.7650  -20.6780   48.2650 O.co2     1 MP341       -0.8033
      5 CB         21.2900  -17.6940   49.0850 C.3       1 MP341       -0.0491
      6 CG         22.5350  -16.7980   49.0580 C.ar      1 MP341       -0.1153
      7 CD1        23.1960  -16.4920   50.2510 C.ar      1 MP341       -0.1200
      8 CD2        23.0110  -16.2770   47.8510 C.ar      1 MP341       -0.1600
      9 CE1        24.3170  -15.6680   50.2390 C.ar      1 MP341       -0.0693
     10 CE2        24.1330  -15.4530   47.8410 C.ar      1 MP341       -0.1230
     11 CZ         24.7850  -15.1500   49.0330 C.ar      1 MP341       -0.0743
     12 CH         26.0270  -14.2380   49.0200 C.3       1 MP341       -0.0558
     13 CJ         25.0390  -15.3300   51.5570 C.3       1 MP341       -0.0578
     14 OXT        19.5570  -19.7380   50.1450 O.co2     1 MP341       -0.7113
     15 HN1        23.0780  -19.1170   47.6880 H         1 MP341        0.4278
     16 HN2        22.3350  -20.5890   47.7240 H         1 MP341        0.4248
     17 HN3        21.6040  -19.3140   46.9760 H         1 MP341        0.4828
     18 HA         22.1680  -19.5580   49.8510 H         1 MP341        0.0887
     19 HB1        20.7270  -17.4530   50.0080 H         1 MP341        0.1147
     20 HB2        20.5970  -17.3900   48.2730 H         1 MP341        0.0707
     21 HD1        22.8310  -16.8830   51.1910 H         1 MP341        0.1430
     22 HD2        22.5070  -16.5010   46.9210 H         1 MP341        0.1290
     23 HE2        24.4980  -15.0490   46.9080 H         1 MP341        0.1350
     24 HH1        26.3770  -14.1140   47.9960 H         1 MP341        0.0447
     25 HH2        26.8150  -14.6880   49.6230 H         1 MP341        0.0467
     26 HH3        25.7660  -13.2640   49.4340 H         1 MP341        0.0527
     27 HJ1        26.0560  -15.7220   51.5260 H         1 MP341        0.0467
     28 HJ2        24.5010  -15.7790   52.3920 H         1 MP341        0.0477
     29 HJ3        25.0710  -14.2490   51.6860 H         1 MP341        0.0517
@<TRIPOS>BOND
     1    3    2 1
     2    3    4 2
     3    3   14 2
     4    2    5 1
     5    2   18 1
     6    2    1 1
     7    5    6 1
     8    5   19 1
     9    5   20 1
    10    7    9 ar
    11    7    6 ar
    12    7   21 1
    13    8   10 ar
    14    8    6 ar
    15    8   22 1
    16    9   13 1
    17    9   11 ar
    18   10   11 ar
    19   10   23 1
    20   12   11 1
    21   12   24 1
    22   12   25 1
    23   12   26 1
    24   13   27 1
    25   13   28 1
    26   13   29 1
    27   15    1 1
    28   16    1 1
    29   17    1 1
@<TRIPOS>SUBSTRUCTURE
     1 MP341        2 RESIDUE           4 A     MP34     0 ROOT
