@<TRIPOS>MOLECULE
DMK.pdb
21 20 1 0 0
SMALL
AMBER ff99SB


@<TRIPOS>ATOM
      1 N          -2.6790   -1.2790   -1.5910 N.4       1 DMK1       -0.8646
      2 CA         -3.1410   -0.0950   -0.8580 C.3       1 DMK1       -0.0015
      3 C          -3.8470    0.8030   -1.8640 C.2       1 DMK1        0.9116
      4 O          -3.5220    0.9690   -3.0310 O.co2     1 DMK1       -0.8513
      5 CB         -1.9890    0.6330   -0.1000 C.3       1 DMK1       -0.1640
      6 CG1        -1.3220   -0.3240    0.9030 C.2       1 DMK1        0.9046
      7 CG2        -0.9050    1.1290   -1.0820 C.3       1 DMK1       -0.0861
      8 CG3        -2.4980    1.8700    0.6780 C.3       1 DMK1       -0.0661
      9 OD1        -0.3220   -1.0700    0.3690 O.co2     1 DMK1       -0.8863
     10 OD2        -1.6490   -0.4320    2.0800 O.co2     1 DMK1       -0.7673
     11 OXT        -4.9100    1.4240   -1.2910 O.co2     1 DMK1       -0.7683
     12 HA         -3.8760   -0.4190   -0.1220 H         1 DMK1        0.0767
     13 HG21       -0.5180    0.2860   -1.6530 H         1 DMK1        0.0187
     14 HG22       -1.3400    1.8600   -1.7640 H         1 DMK1        0.0517
     15 HG23       -0.0920    1.5930   -0.5230 H         1 DMK1        0.0337
     16 HG31       -3.2680    1.5630    1.3860 H         1 DMK1        0.0337
     17 HG32       -1.6680    2.3250    1.2190 H         1 DMK1        0.0387
     18 HG33       -2.9160    2.5930   -0.0230 H         1 DMK1        0.0497
     19 H1         -2.2030   -1.9040   -0.9560 H         1 DMK1        0.4958
     20 H2         -3.4720   -1.7530   -1.9980 H         1 DMK1        0.3978
     21 H3         -2.0440   -0.9950   -2.3230 H         1 DMK1        0.4438
@<TRIPOS>BOND
     1    3    2 1
     2    3    4 2
     3    3   11 2
     4    2    5 1
     5    2   12 1
     6    2    1 1
     7    5    6 1
     8    5    7 1
     9    5    8 1
    10    6    9 2
    11    6   10 2
    12    7   13 1
    13    7   14 1
    14    7   15 1
    15    8   16 1
    16    8   17 1
    17    8   18 1
    18   19    1 1
    19   20    1 1
    20   21    1 1
@<TRIPOS>SUBSTRUCTURE
     1 DMK1        2 RESIDUE           4 A     DMK     0 ROOT
