@<TRIPOS>MOLECULE
ALC.pdb
29 29 1 0 0
SMALL
AMBER ff99SB


@<TRIPOS>ATOM
      1 N          22.1880  -19.5900   47.7520 N.4       1 ALC   -0.8326
      2 CA         21.5330  -19.2300   49.0070 C.3       1 ALC   -0.0735
      3 C          20.1970  -19.9190   49.1360 C.2       1 ALC    0.9346
      4 O          19.7650  -20.6780   48.2650 O.co2     1 ALC   -0.8063
      5 CG         22.5670  -16.8120   49.0610 C.3       1 ALC   -0.0857
      6 CD1        23.5380  -17.1750   50.2270 C.3       1 ALC   -0.0704
      7 CE1        24.8310  -16.3170   50.1960 C.3       1 ALC   -0.0794
      8 CZ         25.5460  -16.4000   48.8220 C.3       1 ALC   -0.0784
      9 CE2        24.5890  -16.0350   47.6580 C.3       1 ALC   -0.0784
     10 CD2        23.2940  -16.8910   47.6840 C.3       1 ALC   -0.0724
     11 CB         21.2910  -17.6960   49.0850 C.3       1 ALC   -0.0924
     12 OXT        19.5570  -19.7380   50.1450 O.co2     1 ALC   -0.7123
     13 HN1        23.0780  -19.1170   47.6880 H         1 ALC    0.4158
     14 HN2        22.3350  -20.5890   47.7240 H         1 ALC    0.4848
     15 HN3        21.6040  -19.3140   46.9760 H         1 ALC    0.4278
     16 HA         22.1680  -19.5580   49.8510 H         1 ALC    0.0907
     17 HB1        20.7270  -17.4530   50.0080 H         1 ALC    0.1167
     18 HB2        20.5970  -17.3900   48.2730 H         1 ALC    0.0547
     19 HG         22.2523  -15.7786   49.2065 H         1 ALC    0.0667
     20 HD11       23.0272  -17.0072   51.1752 H         1 ALC    0.0587
     21 HD12       23.8081  -18.2282   50.1501 H         1 ALC    0.0157
     22 HE11       25.5105  -16.6755   50.9692 H         1 ALC    0.0457
     23 HE12       24.5740  -15.2779   50.4016 H         1 ALC    0.0487
     24 HZ1        26.3873  -15.7070   48.8187 H         1 ALC    0.0477
     25 HZ2        25.9180  -17.4138   48.6738 H         1 ALC    0.0327
     26 HE21       25.1040  -16.2037   46.7123 H         1 ALC    0.0427
     27 HE22       24.3209  -14.9812   47.7345 H         1 ALC    0.0497
     28 HD21       23.5554  -17.9301   47.4837 H         1 ALC    0.0017
     29 HD22       22.6187  -16.5378   46.9047 H         1 ALC    0.0447
@<TRIPOS>BOND
     1    3    2 1
     2    3    4 2
     3    3   12 1
     4    2   11 1
     5    2   16 1
     6    2    1 1
     7   11    5 1
     8   11   17 1
     9   11   18 1
    10    6    7 1
    11    6    5 1
    12   10    9 1
    13   10    5 1
    14    7    8 1
    15    9    8 1
    16   13    1 1
    17   14    1 1
    18   15    1 1
    19   19    5 1
    20   20    6 1
    21   21    6 1
    22   22    7 1
    23   23    7 1
    24   24    8 1
    25   25    8 1
    26   26    9 1
    27   27    9 1
    28   28   10 1
    29   29   10 1
@<TRIPOS>SUBSTRUCTURE
     1 ALC     2 RESIDUE           4 A     ALC     0 ROOT
