@<TRIPOS>MOLECULE
IIL.pdb
22 21 1 0 0
SMALL
AMBER ff99SB


@<TRIPOS>ATOM
      1 N           0.3940   -2.1670   -1.1420 N.4       1 IIL   -0.8356
      2 CA          0.8910   -0.7940   -1.1420 C.3       1 IIL   -0.0655
      3 O           3.0770   -1.8040   -1.1420 O.co2     1 IIL   -0.8083
      4 CB          0.2860    0.0380    0.0610 C.3       1 IIL   -0.0627
      5 CG1         0.5110    1.5810   -0.0360 C.3       1 IIL   -0.0874
      6 CG2        -1.2190   -0.3470    0.2080 C.3       1 IIL   -0.1171
      7 CD1        -0.3270    2.4450    0.9290 C.3       1 IIL   -0.0891
      8 C           2.4320   -0.7910   -1.1420 C.2       1 IIL    0.9346
      9 OXT         3.1190    0.4630   -1.1420 O.co2     1 IIL   -0.7093
     10 H3          1.0600   -3.0170   -1.1420 H         1 IIL    0.4878
     11 HA          0.5680   -0.3220   -2.0880 H         1 IIL    0.0867
     12 HB          0.8090   -0.3030    0.9790 H         1 IIL    0.0757
     13 HG11        0.2540    1.9290   -1.0540 H         1 IIL    0.0297
     14 HG12        1.5870    1.8190    0.0750 H         1 IIL    0.1087
     15 HG21       -1.6970    0.0980    1.0980 H         1 IIL    0.0647
     16 HG22       -1.8150   -0.0390   -0.6730 H         1 IIL    0.0257
     17 HG23       -1.3660   -1.4350    0.3320 H         1 IIL    0.0137
     18 HD11       -1.4120    2.2580    0.8110 H         1 IIL    0.0197
     19 HD12       -0.0730    2.2640    1.9890 H         1 IIL    0.0437
     20 HD13       -0.1630    3.5230    0.7460 H         1 IIL    0.0407
     21 H1         -0.1816   -2.2591   -0.3172 H         1 IIL    0.4298
     22 H2         -0.2140   -2.2643   -1.9426 H         1 IIL    0.4148
@<TRIPOS>BOND
     1    8    2 1
     2    8    3 2
     3    8    9 1
     4    2    4 1
     5    2   11 1
     6    2    1 1
     7    4    5 1
     8    4    6 1
     9    4   12 1
    10    7    5 1
    11    7   18 1
    12    7   19 1
    13    7   20 1
    14    5   13 1
    15    5   14 1
    16    6   15 1
    17    6   16 1
    18    6   17 1
    19   10    1 1
    20   21    1 1
    21   22    1 1
@<TRIPOS>SUBSTRUCTURE
     1 IIL     2 RESIDUE           4 A     IIL     0 ROOT
