@<TRIPOS>MOLECULE
FGA4.pdb
18 17 1 0 0
SMALL
AMBER ff99SB


@<TRIPOS>ATOM
      1 N          -0.3910    0.5370   -1.2040 N.4       1 FGA4   -0.8736
      2 CA          0.4050   -0.3270   -0.3450 C.3       1 FGA4   -0.0305
      3 C           1.0680    0.6340    0.5020 C.2       1 FGA4    0.9186
      4 O           0.4610    1.2580    1.3600 O.co2     1 FGA4   -0.8343
      5 CB          1.4260   -1.0680   -1.2620 C.3       1 FGA4   -0.1064
      6 CG          0.7560   -1.9890   -2.3270 C.3       1 FGA4    0.0396
      7 CD          1.7090   -2.5160   -3.2870 C.2       1 FGA4    0.8946
      8 OE1         2.6350   -3.2380   -2.9360 O.co2     1 FGA4   -0.7343
      9 OE2         1.6100   -2.2560   -4.4780 O.co2     1 FGA4   -0.8763
     10 OXT         2.2230    0.9430    0.2730 O.co2     1 FGA4   -0.7643
     11 FG          0.1120   -3.0410   -1.7140 F         1 FGA4   -0.2433
     12 HA         -0.2100   -1.0650    0.1790 H         1 FGA4    0.0707
     13 HB1         1.9420   -0.2900   -1.8240 H         1 FGA4    0.0677
     14 HB2         1.9890   -1.7320   -0.6060 H         1 FGA4    0.0947
     15 HG         -0.0060   -1.4110   -2.8600 H         1 FGA4    0.0267
     16 H1         -0.0860    0.4330   -2.1610 H         1 FGA4    0.5048
     17 H2         -1.3650    0.2780   -1.1300 H         1 FGA4    0.3998
     18 H3         -0.2760    1.4970   -0.9150 H         1 FGA4    0.4458
@<TRIPOS>BOND
     1    3    2 1
     2    3    4 2
     3    3   10 1
     4    2    5 1
     5    2   12 1
     6    2    1 1
     7    5    6 1
     8    5   13 1
     9    5   14 1
    10    7    6 1
    11    7    8 2
    12    7    9 1
    13    6   11 1
    14    6   15 1
    15   16    1 1
    16   17    1 1
    17   18    1 1
@<TRIPOS>SUBSTRUCTURE
     1 FGA4     2 RESIDUE           4 A     FGA4     0 ROOT
