@<TRIPOS>MOLECULE

19 19 1 0 0
SMALL
AMBER ff99SB


@<TRIPOS>ATOM
      1 N          -3.0527    2.9602    1.7256 N.4       1 TRZ4   -0.8166
      2 CA         -2.1997    1.8035    1.4783 C.3       1 TRZ4   -0.0995
      3 O          -0.2801    2.9623    2.1070 O.co2     1 TRZ4   -0.7833
      4 CB         -1.8257    1.6358   -0.0216 C.3       1 TRZ4    0.0453
      5 C          -1.0756    2.0651    2.3452 C.2       1 TRZ4    0.9446
      6 OXT        -0.9907    1.4884    3.4131 O.co2     1 TRZ4   -0.7133
      7 NG         -2.9660    1.3786   -0.8514 N.ar      1 TRZ4   -0.2432
      8 CD2        -3.5070    0.1792   -1.1375 C.ar      1 TRZ4    0.4294
      9 NE2        -4.5642    0.3475   -1.9420 N.ar      1 TRZ4   -0.6810
     10 CE1        -4.6364    1.6721   -2.1310 C.ar      1 TRZ4    0.2679
     11 ND1        -3.6519    2.2920   -1.4619 N.ar      1 TRZ4   -0.1690
     12 HA         -2.7115    0.9040    1.8204 H         1 TRZ4    0.1017
     13 HB1        -1.1306    0.8015   -0.1162 H         1 TRZ4    0.1317
     14 HB2        -1.3350    2.5456   -0.3674 H         1 TRZ4    0.0767
     15 HD2        -3.1445   -0.7712   -0.7744 H         1 TRZ4    0.0831
     16 HE1        -5.3804    2.1697   -2.7353 H         1 TRZ4    0.0741
     17 H1         -3.8887    2.8890    1.1633 H         1 TRZ4    0.4388
     18 H2         -2.5542    3.8041    1.4819 H         1 TRZ4    0.4818
     19 H3         -3.3058    2.9891    2.7029 H         1 TRZ4    0.4328
@<TRIPOS>BOND
     1    3    5 2
     2    5    2 1
     3    5    6 1
     4    2    1 1
     5    2    4 1
     6    4    7 1
     7    7    8 ar
     8    7   11 ar
     9    8    9 ar
    10    9   10 ar
    11   10   11 ar
    12   12    2 1
    13   13    4 1
    14   14    4 1
    15   15    8 1
    16   16   10 1
    17   17    1 1
    18   18    1 1
    19   19    1 1
@<TRIPOS>SUBSTRUCTURE
     1 TRZ4     2 RESIDUE           4 A     TRZ4     0 ROOT
