@<TRIPOS>MOLECULE
KYN.pdb
27 27 1 0 0
SMALL
AMBER ff99SB


@<TRIPOS>ATOM
      1 C          -2.9289    0.4573    2.0970 C.2       1 KYN1        0.9346
      2 N          -2.6877   -1.1227    0.2664 N.4       1 KYN1       -0.8306
      3 OXT        -2.6323    0.8683    3.3396 O.co2     1 KYN1       -0.7153
      4 CG          0.1790   -0.4978    0.1202 C.2       1 KYN1        0.6077
      5 NE2         2.2646   -2.1435   -0.8977 N.pl3     1 KYN1       -0.8512
      6 OG          0.0176   -1.6995    0.1330 O.2       1 KYN1       -0.6381
      7 CA         -1.9727   -0.4362    1.3503 C.3       1 KYN1       -0.0655
      8 CB         -0.8410    0.4080    0.7609 C.3       1 KYN1       -0.1924
      9 CE2         2.3827   -0.7669   -1.0142 C.ar      1 KYN1        0.2516
     10 CZ1         2.6212    1.9935   -1.2484 C.ar      1 KYN1       -0.1980
     11 CZ2         3.4995   -0.2105   -1.6223 C.ar      1 KYN1       -0.2280
     12 CD          1.3684    0.0752   -0.5213 C.ar      1 KYN1       -0.2716
     13 CH          3.6153    1.1595   -1.7372 C.ar      1 KYN1       -0.0440
     14 CE1         1.5023    1.4633   -0.6460 C.ar      1 KYN1       -0.0410
     15 O          -3.9651    0.8002    1.5777 O.co2     1 KYN1       -0.8003
     16 H3         -3.3989   -1.7365    0.6340 H         1 KYN1        0.4298
     17 H2         -3.0830   -0.4593   -0.3821 H         1 KYN1        0.4748
     18 HE21        2.9964   -2.7189   -1.1706 H         1 KYN1        0.4178
     19 HE22        1.4479   -2.5326   -0.5439 H         1 KYN1        0.4418
     20 HA         -1.5559   -1.1749    2.0351 H         1 KYN1        0.0947
     21 HB1        -0.3664    0.9851    1.5538 H         1 KYN1        0.1317
     22 HB2        -1.2471    1.0855    0.0099 H         1 KYN1        0.0887
     23 HZ1         2.7233    3.0647   -1.3438 H         1 KYN1        0.1430
     24 HZ2         4.2793   -0.8516   -2.0069 H         1 KYN1        0.1370
     25 HH          4.4892    1.5865   -2.2086 H         1 KYN1        0.1370
     26 HE1         0.7320    2.1177   -0.2658 H         1 KYN1        0.1390
     27 H1         -2.0191   -1.6872   -0.2377 H         1 KYN1        0.4458
@<TRIPOS>BOND
     1    1   15 2
     2    1    7 1
     3    1    3 1
     4    4   12 1
     5    4    8 1
     6    4    6 2
     7    7    2 1
     8    7    8 1
     9    7   20 1
    10    8   21 1
    11    8   22 1
    12   11    9 ar
    13   11   13 ar
    14   11   24 1
    15   12    9 ar
    16   12   14 ar
    17   13   10 ar
    18   13   25 1
    19   14   10 ar
    20   14   26 1
    21    9    5 1
    22   10   23 1
    23   16    2 1
    24   27    2 1
    25   17    2 1
    26   18    5 1
    27   19    5 1
@<TRIPOS>SUBSTRUCTURE
     1 KYN1        7 RESIDUE           4 A     KYN     0 ROOT
