@<TRIPOS>MOLECULE
PHE.pdb
 23 23 0 0 0
SMALL
GASTEIGER

@<TRIPOS>ATOM
      1  N          3.0510   -2.1050   -1.0660 N.4     1  PHE1        0.3873
      2  CA         3.5660   -0.7390   -1.0660 C.3     1  PHE1        0.0245
      3  O          5.7510   -1.7960   -1.0660 O.co2   1  PHE1       -0.2482
      4  CB         3.0580    0.0240    0.1950 C.3     1  PHE1       -0.0306
      5  CG         1.5340    0.1190    0.3700 C.ar    1  PHE1       -0.0484
      6  CD1        0.8520   -0.8960    1.0510 C.ar    1  PHE1       -0.0586
      7  CD2        0.8130    1.1730   -0.1960 C.ar    1  PHE1       -0.0586
      8  CE1       -0.5350   -0.8660    1.1480 C.ar    1  PHE1       -0.0615
      9  CE2       -0.5750    1.2080   -0.0890 C.ar    1  PHE1       -0.0615
     10  CZ        -1.2480    0.1870    0.5800 C.ar    1  PHE1       -0.0617
     11  C          5.1100   -0.7760   -1.0660 C.2     1  PHE1        0.3423
     12  OXT        5.8170    0.4670   -1.0660 O.co2   1  PHE1       -0.2482
     13  H3         3.7060   -2.9630   -1.0660 H       1  PHE1       -0.0889
     14  HA         3.2200   -0.2250   -1.9830 H       1  PHE1        0.0201
     15  HB1        3.4740    1.0510    0.1960 H       1  PHE1        0.0302
     16  HB2        3.4950   -0.4320    1.1070 H       1  PHE1        0.0302
     17  HD1        1.3970   -1.7330    1.4670 H       1  PHE1        0.0620
     18  HD2        1.3270    1.9570   -0.7350 H       1  PHE1        0.0620
     19  HE1       -1.0540   -1.6700    1.6490 H       1  PHE1        0.0618
     20  HE2       -1.1290    2.0210   -0.5350 H       1  PHE1        0.0618
     21  HZ        -2.3250    0.2050    0.6520 H       1  PHE1        0.0618
     22  H1         2.4740   -2.1900   -0.2410 H       1  PHE1       -0.0889
     23  H2         2.4420   -2.1940   -1.8670 H       1  PHE1       -0.0889
@<TRIPOS>BOND
     1    11    12    1
     2     2     4    1
     3     2    11    1
     4     2    14    1
     5     4     5    1
     6     4    15    1
     7     4    16    1
     8     6     8   ar
     9     6    17    1
    10     7     9   ar
    11     7    18    1
    12     8    10   ar
    13     8    19    1
    14     9    10   ar
    15     9    20    1
    16     5     6   ar
    17     5     7   ar
    18    10    21    1
    19     1    23    1
    20     1     2    1
    21     1    13    1
    22     1    22    1
    23     3    11    2
