@<TRIPOS>MOLECULE
HLEU.pdb
25 24 1 0 0
SMALL
AMBER ff99SB


@<TRIPOS>ATOM
      1 N          23.1444  -18.6138   47.2838 N.4       1 HLEU1       -0.8376
      2 CA         22.1325  -18.9660   48.2766 C.3       1 HLEU1       -0.0715
      3 C          21.0701  -19.8517   47.6742 C.2       1 HLEU1        0.9356
      4 O          21.1030  -20.2026   46.4922 O.co2     1 HLEU1       -0.8043
      5 CB         21.4345  -17.6905   48.8335 C.3       1 HLEU1       -0.0974
      6 CG         22.3443  -16.6350   49.4884 C.3       1 HLEU1       -0.0844
      7 CD         21.4880  -15.4584   49.9921 C.3       1 HLEU1       -0.0647
      8 CE1        20.4024  -15.9859   50.9481 C.3       1 HLEU1       -0.0931
      9 CE2        22.3850  -14.4528   50.7382 C.3       1 HLEU1       -0.0921
     10 OXT        20.1838  -20.2491   48.3933 O.co2     1 HLEU1       -0.7093
     11 HN1        23.8428  -18.0212   47.7092 H         1 HLEU1        0.4178
     12 HN2        23.5828  -19.4554   46.9374 H         1 HLEU1        0.4878
     13 HN3        22.7077  -18.1221   46.5176 H         1 HLEU1        0.4238
     14 HA         22.6155  -19.5253   49.0995 H         1 HLEU1        0.0887
     15 HB1        20.6706  -17.9805   49.5817 H         1 HLEU1        0.1187
     16 HB2        20.8378  -17.2157   48.0259 H         1 HLEU1        0.0537
     17 HG1        23.0674  -16.2726   48.7571 H         1 HLEU1        0.0077
     18 HG2        22.8746  -17.0833   50.3284 H         1 HLEU1        0.0487
     19 HD         21.0159  -14.9650   49.1428 H         1 HLEU1        0.0497
     20 HE11       19.9538  -16.8873   50.5295 H         1 HLEU1        0.0467
     21 HE21       23.3723  -14.4337   50.2781 H         1 HLEU1        0.0267
     22 HE12       19.6320  -15.2252   51.0797 H         1 HLEU1        0.0387
     23 HE22       22.4740  -14.7483   51.7821 H         1 HLEU1        0.0347
     24 HE13       20.8498  -16.2181   51.9129 H         1 HLEU1        0.0357
     25 HE23       21.9396  -13.4584   50.6783 H         1 HLEU1        0.0417
@<TRIPOS>BOND
     1    3    2 1
     2    3    4 2
     3    3   10 2
     4    2    5 1
     5    2   14 1
     6    2    1 1
     7    5    6 1
     8    5   15 1
     9    5   16 1
    10    7    8 1
    11    7    9 1
    12    7    6 1
    13    7   19 1
    14    8   20 1
    15    8   22 1
    16    8   24 1
    17    9   21 1
    18    9   23 1
    19    9   25 1
    20    6   17 1
    21    6   18 1
    22   11    1 1
    23   12    1 1
    24   13    1 1
@<TRIPOS>SUBSTRUCTURE
     1 HLEU1        2 RESIDUE           4 A     HLEU     0 ROOT
