@<TRIPOS>MOLECULE
YCM.pdb
21 20 1 0 0
SMALL
AMBER ff99SB


@<TRIPOS>ATOM
      1 N           2.9682   -1.4377    0.7051 N.4       1 YCM1       -0.8206
      2 CA          3.3037   -0.6971   -0.4854 C.3       1 YCM1       -0.0805
      3 CB          2.0907    0.0328   -1.0689 C.3       1 YCM1       -0.0263
      4 SG          1.4710    1.3832   -0.0116 S.3       1 YCM1       -0.2702
      5 CD          0.1364    1.9558   -1.0880 C.3       1 YCM1       -0.1163
      6 CE         -0.5651    3.1142   -0.4239 C.2       1 YCM1        0.6801
      7 OZ1         0.0155    4.1520   -0.1140 O.2       1 YCM1       -0.6931
      8 NZ2        -1.9029    2.8892   -0.1924 N.am      1 YCM1       -0.6440
      9 C           4.4866    0.2314   -0.2622 C.2       1 YCM1        0.9406
     10 O           5.0138    0.4107    0.8282 O.co2     1 YCM1       -0.7913
     11 OXT         4.8943    0.8593   -1.3906 O.co2     1 YCM1       -0.7173
     12 HA          3.6169   -1.4288   -1.2314 H         1 YCM1        0.0997
     13 HB1         2.3737    0.4535   -2.0337 H         1 YCM1        0.0797
     14 HB2         1.2880   -0.6884   -1.2217 H         1 YCM1        0.1567
     15 HD1         0.5506    2.2778   -2.0428 H         1 YCM1        0.1027
     16 HD2        -0.5724    1.1446   -1.2517 H         1 YCM1        0.0997
     17 HZ21       -2.3223    2.0125   -0.4671 H         1 YCM1        0.3195
     18 HZ22       -2.4649    3.6008    0.2514 H         1 YCM1        0.3265
     19 H1          2.1801   -2.0407    0.5163 H         1 YCM1        0.4338
     20 H2          2.7286   -0.7931    1.4448 H         1 YCM1        0.4418
     21 H3          3.7600   -1.9957    0.9893 H         1 YCM1        0.4798
@<TRIPOS>BOND
     1    9    2 1
     2    9   11 1
     3    9   10 2
     4    2   12 1
     5    2    3 1
     6    2    1 1
     7    3   13 1
     8    3   14 1
     9    3    4 1
    10    5   16 1
    11    5   15 1
    12    5    4 1
    13    5    6 1
    14    6    7 2
    15    6    8 am
    16   19    1 1
    17   20    1 1
    18   21    1 1
    19   17    8 1
    20   18    8 1
@<TRIPOS>SUBSTRUCTURE
     1 YCM1        2 RESIDUE           4 A     YCM     0 ROOT
