@<TRIPOS>MOLECULE
FGL.pdb
12 11 1 0 0
SMALL
AMBER ff99SB


@<TRIPOS>ATOM
      1 N           1.6720    0.0270    1.0030 N.4       1 FGL   -0.8476
      2 CA          0.2530    0.2960    0.7360 C.3       1 FGL   -0.1565
      3 C           0.1140    1.6430    0.0750 C.2       1 FGL    0.9296
      4 O           1.0990    2.2740   -0.2220 O.co2     1 FGL   -0.8723
      5 CB         -0.5130    0.2910    2.0310 C.2       1 FGL    0.9296
      6 OG1        -0.4260   -0.7610    2.8590 O.co2     1 FGL   -0.8743
      7 OG2        -1.2060    1.2360    2.3280 O.co2     1 FGL   -0.7413
      8 OXT        -1.1060    2.1390   -0.1860 O.co2     1 FGL   -0.7433
      9 HA         -0.1450   -0.4750    0.0750 H         1 FGL    0.0717
     10 H1          1.7670   -0.8750    1.4460 H         1 FGL    0.4598
     11 H2          2.0410    0.7420    1.6140 H         1 FGL    0.4608
     12 H3          2.1850    0.0310    0.1330 H         1 FGL    0.3848
@<TRIPOS>BOND
     1    3    2 1
     2    3    4 2
     3    3    8 2
     4    2    5 1
     5    2    9 1
     6    2    1 1
     7    5    6 2
     8    5    7 2
     9   10    1 1
    10   11    1 1
    11   12    1 1
@<TRIPOS>SUBSTRUCTURE
     1 FGL     2 RESIDUE           4 A     FGL     0 ROOT
