@<TRIPOS>MOLECULE
DAB.pdb
19 18 1 0 0
SMALL
AMBER ff99SB


@<TRIPOS>ATOM
      1 N          30.2710   35.2450  -89.6450 N.4       1 DAB   -0.6696
      2 CA         30.1950   34.1640  -88.6670 C.3       1 DAB   -0.6315
      3 C          29.7460   34.6830  -87.3210 C.2       1 DAB    1.0436
      4 O          28.9500   34.0150  -86.6310 O.co2     1 DAB   -0.4913
      5 CB         31.5790   33.4660  -88.5590 C.3       1 DAB    0.0516
      6 CG         32.0590   32.8400  -89.8920 C.3       1 DAB    0.0688
      7 ND         33.3980   32.2360  -89.8450 N.4       1 DAB   -0.8376
      8 OXT        30.1480   35.7530  -86.9560 O.co2     1 DAB   -0.5273
      9 HA         29.4657   33.4330  -89.0161 H         1 DAB    0.1227
     10 HB2        32.3143   34.2048  -88.2400 H         1 DAB    0.0327
     11 HB3        31.5189   32.6818  -87.8043 H         1 DAB    0.0577
     12 HG2        32.0673   33.6231  -90.6501 H         1 DAB    0.0867
     13 HG3        31.3438   32.0743  -90.1926 H         1 DAB    0.1087
     14 HD1        33.6279   31.8548  -90.7516 H         1 DAB    0.4498
     15 HD2        34.0765   32.9410  -89.5946 H         1 DAB    0.4498
     16 HD3        33.4101   31.4973  -89.1563 H         1 DAB    0.4588
     17 H1         29.3718   35.6993  -89.7159 H         1 DAB    0.4448
     18 H2         30.5287   34.8667  -90.5453 H         1 DAB    0.3678
     19 H3         30.9654   35.9169  -89.3509 H         1 DAB    0.4128
@<TRIPOS>BOND
     1    3    2 1
     2    3    4 2
     3    3    8 2
     4    2    5 1
     5    2    1 1
     6    5    6 1
     7    6    7 1
     8    9    2 1
     9   10    5 1
    10   11    5 1
    11   12    6 1
    12   13    6 1
    13   14    7 1
    14   15    7 1
    15   16    7 1
    16   17    1 1
    17   18    1 1
    18   19    1 1
@<TRIPOS>SUBSTRUCTURE
     1 DAB     2 RESIDUE           4 B     DAB     0 ROOT
