@<TRIPOS>MOLECULE
LE1.pdb
20 19 1 0 0
SMALL
AMBER ff99SB


@<TRIPOS>ATOM
      1 O           0.8371    0.0560    2.6466 O.co2     1 LE11       -0.7963
      2 C           1.2903    0.0420    1.5260 C.2       1 LE11        0.9386
      3 CA          0.6518   -0.8169    0.4661 C.3       1 LE11       -0.0695
      4 N          -0.1536   -1.8665    1.1057 N.4       1 LE11       -0.8386
      5 CB         -0.2479    0.0480   -0.4181 C.3       1 LE11        0.1031
      6 CG1        -1.3379    0.6931    0.4403 C.3       1 LE11       -0.1161
      7 CG2         0.5902    1.1415   -1.0840 C.3       1 LE11       -0.0981
      8 SG3        -1.0177   -0.9859   -1.6940 S.3       1 LE11       -0.5009
      9 OXT         2.3594    0.7959    1.2252 O.co2     1 LE11       -0.7083
     10 HA          1.4288   -1.2775   -0.1453 H         1 LE11        0.1037
     11 HN1         0.4283   -2.4903    1.6441 H         1 LE11        0.4318
     12 HN2        -0.8808   -1.4656    1.6781 H         1 LE11        0.4758
     13 HG11       -0.8761    1.3154    1.2079 H         1 LE11        0.0997
     14 HG12       -1.9794    1.3101   -0.1890 H         1 LE11        0.0497
     15 HG13       -1.9355   -0.0845    0.9143 H         1 LE11        0.0297
     16 HG21        1.3662    0.6808   -1.6955 H         1 LE11        0.0557
     17 HG22       -0.0511    1.7584   -1.7143 H         1 LE11        0.0447
     18 HG23        1.0522    1.7618   -0.3172 H         1 LE11        0.1037
     19 HG3        -1.7671   -0.1079   -2.3844 H         1 LE11        0.2448
     20 HN3        -0.5952   -2.4065    0.3754 H         1 LE11        0.4458
@<TRIPOS>BOND
     1    2    1 2
     2    2    3 1
     3    2    9 1
     4    7    5 1
     5    7   18 1
     6    7   16 1
     7    7   17 1
     8    6    5 1
     9    6   13 1
    10    6   14 1
    11    6   15 1
    12    3    4 1
    13    3    5 1
    14    3   10 1
    15    5    8 1
    16   20    4 1
    17   11    4 1
    18   12    4 1
    19   19    8 1
@<TRIPOS>SUBSTRUCTURE
     1 LE11        3 RESIDUE           4 A     LE1     0 ROOT
