@<TRIPOS>MOLECULE
DDZ.pdb
15 14 1 0 0
SMALL
AMBER ff99SB


@<TRIPOS>ATOM
      1 N           0.7620    1.0270    1.1060 N.4       1 DDZ1       -0.8156
      2 CA         -0.0630   -0.0280    0.5020 C.3       1 DDZ1       -0.1435
      3 C           0.8150   -0.9570   -0.2960 C.2       1 DDZ1        0.9386
      4 O           1.9060   -0.5920   -0.6620 O.co2     1 DDZ1       -0.7803
      5 OG1        -1.9820   -0.4090   -0.9150 O.3       1 DDZ1       -0.6388
      6 OG2        -1.8630    1.5730    0.3110 O.3       1 DDZ1       -0.6558
      7 CB         -1.1070    0.6060   -0.4190 C.3       1 DDZ1        0.3709
      8 OXT         0.3840   -2.1910   -0.6000 O.co2     1 DDZ1       -0.7383
      9 HN1         1.2400    1.5630    0.3960 H         1 DDZ1        0.4828
     10 HN2         0.2080    1.6260    1.6980 H         1 DDZ1        0.4408
     11 HA         -0.5660   -0.5900    1.2890 H         1 DDZ1        0.1047
     12 HB         -0.6040    1.0930   -1.2560 H         1 DDZ1        0.0757
     13 HG1        -2.4640   -0.8850   -0.2250 H         1 DDZ1        0.4830
     14 HG2        -2.5450    2.0160   -0.2130 H         1 DDZ1        0.4490
     15 HN3         1.4620    0.5830    1.6830 H         1 DDZ1        0.4268
@<TRIPOS>BOND
     1    3    2 1
     2    3    4 2
     3    3    8 1
     4    2    1 1
     5    2    7 1
     6    2   11 1
     7    7    5 1
     8    7    6 1
     9    7   12 1
    10   15    1 1
    11   13    5 1
    12   14    6 1
    13    9    1 1
    14   10    1 1
@<TRIPOS>SUBSTRUCTURE
     1 DDZ1        2 RESIDUE           4 A     DDZ     0 ROOT
