@<TRIPOS>MOLECULE
OMX.pdb
25 25 1 0 0
SMALL
AMBER ff99SB


@<TRIPOS>ATOM
      1 N          -0.5880    2.0760   -0.0570 N.4       1 OMX1       -0.8186
      2 CA         -1.3970    0.8960   -0.3920 C.3       1 OMX1       -0.1155
      3 C          -2.8460    1.1770   -0.0840 C.2       1 OMX1        0.9246
      4 O          -3.1390    2.0660    0.6800 O.co2     1 OMX1       -0.8073
      5 CB         -0.9220   -0.3000    0.4350 C.3       1 OMX1        0.1954
      6 OG         -1.1740   -0.0500    1.8200 O.3       1 OMX1       -0.6218
      7 CG          0.5550   -0.5040    0.2200 C.ar      1 OMX1       -0.1603
      8 CD1         0.9960   -1.4060   -0.7300 C.ar      1 OMX1       -0.0820
      9 CD2         1.4670    0.2150    0.9710 C.ar      1 OMX1       -0.0910
     10 CE1         2.3500   -1.5950   -0.9280 C.ar      1 OMX1       -0.2130
     11 CE2         2.8220    0.0300    0.7760 C.ar      1 OMX1       -0.1620
     12 CZ          3.2670   -0.8780   -0.1730 C.ar      1 OMX1        0.1331
     13 OH          4.6000   -1.0630   -0.3670 O.3       1 OMX1       -0.4931
     14 OXT        -3.8090    0.4400   -0.6590 O.co2     1 OMX1       -0.7033
     15 HN1        -0.8390    2.8630   -0.6350 H         1 OMX1        0.4328
     16 HN2        -0.6720    2.3060    0.9230 H         1 OMX1        0.4808
     17 HA         -1.2890    0.6720   -1.4530 H         1 OMX1        0.1007
     18 HB         -1.4620   -1.1940    0.1230 H         1 OMX1        0.0947
     19 HG         -0.7240    0.7320    2.1660 H         1 OMX1        0.4510
     20 HD1         0.2820   -1.9630   -1.3180 H         1 OMX1        0.1460
     21 HD2         1.1200    0.9220    1.7100 H         1 OMX1        0.1550
     22 HE1         2.6940   -2.3000   -1.6710 H         1 OMX1        0.1410
     23 HE2         3.5340    0.5920    1.3620 H         1 OMX1        0.1560
     24 HH          4.9860   -0.4760   -1.0310 H         1 OMX1        0.4240
     25 HN3         0.3790    1.8520   -0.2410 H         1 OMX1        0.4318
@<TRIPOS>BOND
     1    3    2 1
     2    3    4 2
     3    3   14 1
     4    2    1 1
     5    2    5 1
     6    2   17 1
     7    5    6 1
     8    5    7 1
     9    5   18 1
    10    8   10 ar
    11    8    7 ar
    12    8   20 1
    13    9    7 ar
    14    9   11 ar
    15    9   21 1
    16   10   12 ar
    17   10   22 1
    18   11   12 ar
    19   11   23 1
    20   12   13 1
    21   25    1 1
    22   19    6 1
    23   24   13 1
    24   15    1 1
    25   16    1 1
@<TRIPOS>SUBSTRUCTURE
     1 OMX1        2 RESIDUE           4 A     OMX     0 ROOT
