@<TRIPOS>MOLECULE
200.pdb
23 23 1 0 0
SMALL
AMBER ff99SB


@<TRIPOS>ATOM
      1 N           2.8418    1.0675   -0.2042 N.4       1 2001       -0.8356
      2 CA          2.2824    0.8183    1.1217 C.3       1 2001       -0.0715
      3 C           3.3689    0.4717    2.1096 C.2       1 2001        0.9376
      4 O           4.5574    0.4221    1.7849 O.co2     1 2001       -0.8003
      5 CB          1.2730   -0.3662    1.0839 C.3       1 2001       -0.0511
      6 CG          0.0334   -0.1868    0.1984 C.ar      1 2001       -0.1113
      7 CD1        -1.0738    0.5119    0.6875 C.ar      1 2001       -0.1140
      8 CD2        -0.0025   -0.7230   -1.0926 C.ar      1 2001       -0.1490
      9 CE1        -2.2089    0.6672   -0.1025 C.ar      1 2001       -0.1170
     10 CE2        -1.1378   -0.5657   -1.8823 C.ar      1 2001       -0.1210
     11 CZ         -2.2391    0.1287   -1.3879 C.ar      1 2001        0.0164
     12 CLZ        -3.6829    0.3281   -2.3926 Cl        1 2001       -0.0814
     13 OXT         3.0527    0.2727    3.2583 O.co2     1 2001       -0.7093
     14 HN1         2.0974    1.2965   -0.8469 H         1 2001        0.4248
     15 HN2         3.4921    1.8391   -0.1556 H         1 2001        0.4258
     16 HN3         3.3230    0.2419   -0.5274 H         1 2001        0.4838
     17 HA          1.7788    1.7367    1.4777 H         1 2001        0.0897
     18 HB1         0.9192   -0.5866    2.1107 H         1 2001        0.1177
     19 HB2         1.8069   -1.2947    0.7904 H         1 2001        0.0717
     20 HD1        -1.0493    0.9323    1.6819 H         1 2001        0.1510
     21 HD2         0.8455   -1.2702   -1.4828 H         1 2001        0.1350
     22 HE1        -3.0641    1.2058    0.2792 H         1 2001        0.1550
     23 HE2        -1.1654   -0.9822   -2.8779 H         1 2001        0.1520
@<TRIPOS>BOND
     1    3    2 1
     2    3    4 2
     3    3   13 2
     4    2    5 1
     5    2   17 1
     6    2    1 1
     7    5    6 1
     8    5   18 1
     9    5   19 1
    10    7    9 ar
    11    7    6 ar
    12    7   20 1
    13    8   10 ar
    14    8    6 ar
    15    8   21 1
    16    9   11 ar
    17    9   22 1
    18   10   11 ar
    19   10   23 1
    20   12   11 1
    21   14    1 1
    22   15    1 1
    23   16    1 1
@<TRIPOS>SUBSTRUCTURE
     1 2001        2 RESIDUE           4 A     200     0 ROOT
