@<TRIPOS>MOLECULE
THIC.pdb
25 24 1 0 0
SMALL
AMBER ff99SB


@<TRIPOS>ATOM
      1 N         -15.3170    7.5960   11.1270 N.4       1 THIC   -0.8356
      2 CA        -16.2180    8.4370   11.9110 C.3       1 THIC   -0.0785
      3 C         -16.9630    9.4320   10.9970 C.2       1 THIC    0.9386
      4 O         -16.3870    9.9630   10.0850 O.co2     1 THIC   -0.7953
      5 CB        -15.4280    9.2450   12.9420 C.3       1 THIC   -0.0954
      6 CG        -14.8390    8.3730   14.0350 C.3       1 THIC   -0.1264
      7 CD        -14.0770    9.2770   15.0070 C.3       1 THIC    0.0750
      8 NE        -13.2020    8.5330   15.9010 N.pl3     1 THIC   -0.4529
      9 CZ        -13.5960    7.8530   16.9700 C.2       1 THIC    0.4344
     10 OXT       -18.3430    9.7230   11.2360 O.co2     1 THIC   -0.7093
     11 SZ        -12.4410    7.1150   18.0160 S.2       1 THIC   -0.5964
     12 NH        -14.9030    7.7720   17.2300 N.pl3     1 THIC   -0.5480
     13 HA        -16.9440    7.8070   12.4250 H         1 THIC    0.0917
     14 HB1       -14.6160    9.7630   12.4320 H         1 THIC    0.0567
     15 HB2       -16.0890    9.9830   13.3960 H         1 THIC    0.1177
     16 HG1       -15.6380    7.8530   14.5640 H         1 THIC    0.0567
     17 HG2       -14.1550    7.6460   13.5970 H         1 THIC    0.0257
     18 HD1       -13.4720    9.9770   14.4300 H         1 THIC    0.0647
     19 HD2       -14.7950    9.8400   15.6030 H         1 THIC    0.0597
     20 HE        -12.2140    8.5340   15.6900 H         1 THIC    0.3385
     21 HH1       -15.5690    8.2190   16.6160 H         1 THIC    0.3045
     22 HH2       -15.2260    7.2640   18.0410 H         1 THIC    0.3415
     23 H1        -15.8510    7.0690   10.4510 H         1 THIC    0.4208
     24 H2        -14.8310    6.9590   11.7420 H         1 THIC    0.4228
     25 H3        -14.6460    8.1780   10.6460 H         1 THIC    0.4898
@<TRIPOS>BOND
     1    3    2 1
     2    3    4 2
     3    3   10 1
     4    2    5 1
     5    2   13 1
     6    2    1 1
     7    5    6 1
     8    5   14 1
     9    5   15 1
    10    7    6 1
    11    7   18 1
    12    7   19 1
    13    7    8 1
    14    6   16 1
    15    6   17 1
    16    9    8 2
    17    9   12 2
    18    9   11 2
    19   23    1 1
    20   24    1 1
    21   25    1 1
    22   20    8 1
    23   21   12 1
    24   22   12 1
@<TRIPOS>SUBSTRUCTURE
     1 THIC     2 RESIDUE           4 A     THIC     0 ROOT
