@<TRIPOS>MOLECULE
MET.pdb
 20 19 0 0 0
SMALL
GASTEIGER

@<TRIPOS>ATOM
      1  N          1.0520   -1.9370   -1.1660 N.4     1  MET1        0.3871
      2  CA         1.5400   -0.5610   -1.1660 C.3     1  MET1        0.0212
      3  O          3.7330   -1.5560   -1.1660 O.co2   1  MET1       -0.2483
      4  CB         0.9650    0.2020    0.0590 C.3     1  MET1       -0.0469
      5  CG        -0.5710    0.3520    0.1000 C.3     1  MET1       -0.0076
      6  SD        -1.0380    1.4960    1.4090 S.3     1  MET1       -0.1642
      7  CE        -2.8010    1.1470    1.4510 C.3     1  MET1       -0.0181
      8  C          3.0810   -0.5470   -1.1660 C.2     1  MET1        0.3421
      9  OXT        3.7590    0.7120   -1.1660 O.co2   1  MET1       -0.2483
     10  H3         1.7250   -2.7820   -1.1660 H       1  MET1       -0.0889
     11  HA         1.2020   -0.0670   -2.0960 H       1  MET1        0.0198
     12  HB1        1.4030    1.2180    0.0960 H       1  MET1        0.0262
     13  HB2        1.3000   -0.2850    0.9970 H       1  MET1        0.0262
     14  HG1       -1.0430   -0.6310    0.2870 H       1  MET1        0.0376
     15  HG2       -0.9700    0.7180   -0.8640 H       1  MET1        0.0376
     16  HE1       -3.2580    1.2950    0.4560 H       1  MET1        0.0340
     17  HE2       -2.9790    0.1030    1.7640 H       1  MET1        0.0340
     18  HE3       -3.3100    1.8130    2.1690 H       1  MET1        0.0340
     19  H1         0.4770   -2.0330   -1.9910 H       1  MET1       -0.0889
     20  H2         0.4450   -2.0390   -0.3650 H       1  MET1       -0.0889
@<TRIPOS>BOND
     1     8     9    1
     2     2     4    1
     3     2     8    1
     4     2    11    1
     5     4    13    1
     6     4     5    1
     7     4    12    1
     8     7    16    1
     9     7    18    1
    10     7    17    1
    11     5    14    1
    12     5    15    1
    13     5     6    1
    14     1     2    1
    15     1    10    1
    16     1    19    1
    17     1    20    1
    18     3     8    2
    19     6     7    1
