@<TRIPOS>MOLECULE
ORN.pdb
22 21 1 0 0
SMALL
AMBER ff99SB


@<TRIPOS>ATOM
      1 N          31.5065   35.0628  -87.3643 N.4       1 ORN358     -0.8246
      2 CA         32.1841   35.1492  -88.6544 C.3       1 ORN358     -0.0425
      3 C          31.8320   36.4351  -89.3652 C.2       1 ORN358      0.8966
      4 O          32.7112   37.0604  -89.9912 O.co2     1 ORN358     -0.7453
      5 CB         31.8071   33.9154  -89.5203 C.3       1 ORN358     -0.0924
      6 CG         32.1315   32.5627  -88.8390 C.3       1 ORN358     -0.1054
      7 CD         31.7582   31.3243  -89.6587 C.3       1 ORN358      0.1138
      8 NE         32.0984   30.0639  -88.8526 N.4       1 ORN358     -0.8636
      9 OXT        30.4929   36.9343  -89.3202 O.co2     1 ORN358     -0.8133
     10 HN1        31.7511   35.8641  -86.8009 H         1 ORN358      0.4398
     11 HN2        31.7920   34.2183  -86.8902 H         1 ORN358      0.4808
     12 HN3        30.5073   35.0458  -87.5092 H         1 ORN358      0.4608
     13 HA         33.2600   35.1337  -88.4812 H         1 ORN358      0.1217
     14 HB1        30.7372   33.9515  -89.7251 H         1 ORN358      0.0677
     15 HB2        32.3471   33.9709  -90.4651 H         1 ORN358      0.0637
     16 HG1        33.2035   32.5293  -88.6439 H         1 ORN358      0.1097
     17 HG2        31.6039   32.5206  -87.8856 H         1 ORN358      0.0957
     18 HD1        32.3201   31.3223  -90.5930 H         1 ORN358      0.0977
     19 HD2        30.6896   31.3399  -89.8774 H         1 ORN358      0.1027
     20 HE1        31.8537   29.2430  -89.3887 H         1 ORN358      0.4478
     21 HE2        33.0876   30.0506  -88.6499 H         1 ORN358      0.4918
     22 HE3        31.5772   30.0663  -87.9871 H         1 ORN358      0.4958
@<TRIPOS>BOND
     1    3    2 1
     2    3    4 2
     3    3    9 2
     4    2    5 1
     5    2   13 1
     6    2    1 1
     7    5    6 1
     8    5   14 1
     9    5   15 1
    10    7    6 1
    11    7   18 1
    12    7   19 1
    13    7    8 1
    14    6   16 1
    15    6   17 1
    16   20    8 1
    17   21    8 1
    18   22    8 1
    19   10    1 1
    20   11    1 1
    21   12    1 1
@<TRIPOS>SUBSTRUCTURE
     1 ORN358      2 RESIDUE           4 B     ORN     0 ROOT
