@<TRIPOS>MOLECULE
CTH.pdb
17 16 1 0 0
SMALL
NO_CHARGES


@<TRIPOS>ATOM
      1 N          -1.2620    0.0220    0.8980 N.4       1 CTH1        0.0000
      2 CA         -1.0570    0.6340   -0.4210 C.3       1 CTH1        0.0000
      3 C          -2.1490    0.1850   -1.3570 C.2       1 CTH1        0.0000
      4 O          -2.6600   -0.8990   -1.2140 O.co2     1 CTH1        0.0000
      5 OXT        -2.5540    0.9900   -2.3510 O.co2     1 CTH1        0.0000
      6 CB          0.3000    0.2050   -0.9770 C.3       1 CTH1        0.0000
      7 CG2         1.4080    0.6610   -0.0270 C.3       1 CTH1        0.0000
      8 CL2         3.0100    0.1560   -0.6810 Cl        1 CTH1        0.0000
      9 OG1         0.3360   -1.2180   -1.1010 O.3       1 CTH1        0.0000
     10 H3         -1.2290   -0.9760    0.7630 H         1 CTH1        0.0000
     11 H2         -0.4590    0.2650    1.4580 H         1 CTH1        0.0000
     12 HA         -1.0850    1.7200   -0.3260 H         1 CTH1        0.0000
     13 HB          0.4530    0.6580   -1.9560 H         1 CTH1        0.0000
     14 HG21        1.3820    1.7470    0.0690 H         1 CTH1        0.0000
     15 HG22        1.2570    0.2070    0.9520 H         1 CTH1        0.0000
     16 HG1         0.1980   -1.5790   -0.2150 H         1 CTH1        0.0000
     17 H1         -2.1270    0.3200    1.3250 H         1 CTH1        0.0000
@<TRIPOS>BOND
     1    3    4 2
     2    3    5 1
     3    3    2 1
     4    2    6 1
     5    2    1 1
     6    2   12 1
     7    6    7 1
     8    6    9 1
     9    6   13 1
    10    7    8 1
    11    7   14 1
    12    7   15 1
    13   10    1 1
    14   17    1 1
    15   11    1 1
    16   16    9 1
@<TRIPOS>SUBSTRUCTURE
     1 CTH1        2 RESIDUE           4 A     CTH     0 ROOT
