@<TRIPOS>MOLECULE
LVG.pdb
14 13 1 0 0
SMALL
AMBER ff99SB


@<TRIPOS>ATOM
      1 N           1.4340    0.5660   -1.3860 N.4       1 LVG1       -0.8336
      2 CA          0.5130    0.3540   -0.2620 C.3       1 LVG1       -0.0603
      3 C           1.1230   -0.6220    0.7100 C.2       1 LVG1        0.9456
      4 O           1.8770   -1.4770    0.3140 O.co2     1 LVG1       -0.7963
      5 CB         -0.7890   -0.1970   -0.7780 C.2       1 LVG1       -0.1462
      6 CG         -1.1960    0.1020   -1.9870 C.2       1 LVG1       -0.2570
      7 OXT         0.8280   -0.5400    2.0160 O.co2     1 LVG1       -0.7013
      8 HA          0.3310    1.3040    0.2420 H         1 LVG1        0.1017
      9 HB         -1.3910   -0.8400   -0.1520 H         1 LVG1        0.1900
     10 HG1        -2.1310   -0.2940   -2.3570 H         1 LVG1        0.1340
     11 HG2        -0.5960    0.7440   -2.6140 H         1 LVG1        0.0870
     12 H1          2.3040    0.9840   -1.0900 H         1 LVG1        0.4158
     13 H2          0.9460    1.1400   -2.0570 H         1 LVG1        0.4308
     14 H3          1.5730   -0.3320   -1.8200 H         1 LVG1        0.4888
@<TRIPOS>BOND
     1    3    2 1
     2    3    4 2
     3    3    7 2
     4    2    5 1
     5    2    8 1
     6    2    1 1
     7    5    6 2
     8    5    9 1
     9    6   10 1
    10    6   11 1
    11   12    1 1
    12   13    1 1
    13   14    1 1
@<TRIPOS>SUBSTRUCTURE
     1 LVG1        2 RESIDUE           4 A     LVG     0 ROOT
