@<TRIPOS>MOLECULE
TFG3.pdb
23 23 1 0 0
SMALL
AMBER ff99SB


@<TRIPOS>ATOM
      1 N           2.3530    4.1250    1.3590 N.4       1 TFG3   -0.8336
      2 CA          2.0910    3.7120   -0.0200 C.3       1 TFG3   -0.0262
      3 C           1.4560    4.8360   -0.6970 C.2       1 TFG3    0.9366
      4 O           0.5000    5.4300   -0.2130 O.co2     1 TFG3   -0.8073
      5 CB          1.3430    2.4120   -0.0130 C.ar      1 TFG3   -0.1263
      6 CG1         2.0630    1.1890   -0.0100 C.ar      1 TFG3   -0.0740
      7 CG2        -0.0720    2.3400    0.0260 C.ar      1 TFG3   -0.0590
      8 CD1         1.3970   -0.0510   -0.0030 C.ar      1 TFG3   -0.1773
      9 CD2        -0.7400    1.1020    0.0120 C.ar      1 TFG3   -0.1380
     10 CE         -0.0060   -0.0950   -0.0010 C.ar      1 TFG3   -0.0620
     11 OXT         1.9040    5.2740   -1.7430 O.co2     1 TFG3   -0.6903
     12 CH1         2.2080   -1.3600    0.0030 C.3       1 TFG3    0.6882
     13 FH1         3.3820   -1.1580    0.6380 F         1 TFG3   -0.2423
     14 FH2         2.4460   -1.7480   -1.2680 F         1 TFG3   -0.2283
     15 FH3         1.5100   -2.3210    0.6440 F         1 TFG3   -0.2363
     16 HA          2.9970    3.5220   -0.5950 H         1 TFG3    0.0997
     17 HG2        -0.6480    3.2530    0.0680 H         1 TFG3    0.1840
     18 HD2        -1.8200    1.0730    0.0110 H         1 TFG3    0.1530
     19 HE         -0.5190   -1.0450   -0.0100 H         1 TFG3    0.1560
     20 H1          2.4630    3.3060    1.9400 H         1 TFG3    0.4208
     21 H2          3.1980    4.6760    1.3910 H         1 TFG3    0.4328
     22 H3          1.5780    4.6760    1.6990 H         1 TFG3    0.4828
     23 HG1         3.1428    1.2102   -0.0131 H         1 TFG3    0.1460
@<TRIPOS>BOND
     1    3    2 1
     2    3    4 2
     3    3   11 1
     4   12    8 1
     5   12   13 1
     6   12   14 1
     7   12   15 1
     8    2    5 1
     9    2   16 1
    10    2    1 1
    11    5    6 ar
    12    5    7 ar
    13    8   10 ar
    14    8    6 ar
    15    9   10 ar
    16    9    7 ar
    17    9   18 1
    18   10   19 1
    19    7   17 1
    20   20    1 1
    21   21    1 1
    22   22    1 1
    23   23    6 1
@<TRIPOS>SUBSTRUCTURE
     1 TFG3     2 RESIDUE           4 A     TFG3     0 ROOT
