@<TRIPOS>MOLECULE
PPN.pdb
25 25 1 0 0
SMALL
AMBER ff99SB


@<TRIPOS>ATOM
      1 N          22.1880  -19.5900   47.7520 N.4       1 PPN   -0.8356
      2 CA         21.5330  -19.2300   49.0070 C.3       1 PPN   -0.0785
      3 C          20.1970  -19.9190   49.1360 C.2       1 PPN    0.9406
      4 O          19.7650  -20.6780   48.2650 O.co2     1 PPN   -0.7923
      5 CB         21.2900  -17.6940   49.0850 C.3       1 PPN   -0.0611
      6 CG         22.5350  -16.7980   49.0580 C.ar      1 PPN   -0.0653
      7 CD1        23.2500  -16.5680   50.2370 C.ar      1 PPN   -0.1350
      8 CD2        22.9570  -16.2010   47.8660 C.ar      1 PPN   -0.1680
      9 CE1        24.3720  -15.7450   50.2260 C.ar      1 PPN   -0.0600
     10 CE2        24.0800  -15.3790   47.8570 C.ar      1 PPN   -0.0630
     11 CZ         24.7860  -15.1510   49.0350 C.ar      1 PPN   -0.1782
     12 NH         25.8950  -14.3530   49.0830 N.2       1 PPN    0.3132
     13 OJ1        26.4540  -14.1900   50.0940 O.co2     1 PPN   -0.1990
     14 OJ2        26.3180  -13.8540   48.1180 O.co2     1 PPN   -0.2040
     15 OXT        19.5570  -19.7380   50.1450 O.co2     1 PPN   -0.7043
     16 HN1        23.0780  -19.1170   47.6880 H         1 PPN    0.4218
     17 HN2        22.3350  -20.5890   47.7240 H         1 PPN    0.4278
     18 HN3        21.6040  -19.3140   46.9760 H         1 PPN    0.4868
     19 HA         22.1680  -19.5580   49.8510 H         1 PPN    0.0927
     20 HB1        20.7270  -17.4530   50.0080 H         1 PPN    0.1267
     21 HB2        20.5970  -17.3900   48.2730 H         1 PPN    0.0757
     22 HD1        22.9310  -17.0300   51.1590 H         1 PPN    0.1620
     23 HD2        22.4110  -16.3670   46.9470 H         1 PPN    0.1440
     24 HE1        24.9210  -15.5670   51.1390 H         1 PPN    0.1780
     25 HE2        24.4030  -14.9170   46.9360 H         1 PPN    0.1750
@<TRIPOS>BOND
     1    3    2 1
     2    3    4 2
     3    3   15 2
     4    2    5 1
     5    2   19 1
     6    2    1 1
     7    5    6 1
     8    5   20 1
     9    5   21 1
    10    7    9 ar
    11    7    6 ar
    12    7   22 1
    13    8   10 ar
    14    8    6 ar
    15    8   23 1
    16    9   11 ar
    17    9   24 1
    18   10   11 ar
    19   10   25 1
    20   11   12 1
    21   16    1 1
    22   17    1 1
    23   18    1 1
    24   12   13 2
    25   12   14 2
@<TRIPOS>SUBSTRUCTURE
     1 PPN     2 RESIDUE           4 A     PPN     0 ROOT
