@<TRIPOS>MOLECULE
SYM.pdb
21 20 1 0 0
SMALL
AMBER ff99SB


@<TRIPOS>ATOM
      1 CB          0.2698    0.6916    0.5861 C.3       1 SYM1       -0.0634
      2 CG          1.3209    0.9701   -0.4895 C.3       1 SYM1       -0.1947
      3 CD2         2.4932    1.7352    0.1271 C.3       1 SYM1       -0.0691
      4 CD1         1.8158   -0.3352   -1.0577 C.2       1 SYM1        0.9086
      5 OE1         2.7484   -0.3354   -2.0240 O.co2     1 SYM1       -0.7683
      6 OE2         1.3735   -1.3799   -0.6448 O.co2     1 SYM1       -0.8913
      7 C          -1.9529   -0.3204    1.0120 C.2       1 SYM1        0.9136
      8 O          -1.7800   -1.4663    1.6907 O.co2     1 SYM1       -0.7633
      9 OXT        -2.8958    0.3926    1.2633 O.co2     1 SYM1       -0.8523
     10 N          -1.5963    1.0600   -0.9562 N.4       1 SYM1       -0.8536
     11 CA         -0.9718    0.0764   -0.0609 C.3       1 SYM1       -0.0255
     12 HB1         0.6778   -0.0014    1.3207 H         1 SYM1        0.0827
     13 HB2        -0.0023    1.6256    1.0789 H         1 SYM1        0.0397
     14 HG          0.8760    1.5676   -1.2861 H         1 SYM1        0.0167
     15 HD21        3.2328    1.9516   -0.6447 H         1 SYM1        0.0247
     16 HD22        2.1309    2.6703    0.5557 H         1 SYM1        0.0037
     17 HD23        2.9504    1.1299    0.9092 H         1 SYM1        0.0547
     18 HN1        -2.4619    0.6514   -1.2773 H         1 SYM1        0.4378
     19 HN2        -1.8460    1.8545   -0.3852 H         1 SYM1        0.4078
     20 HA         -0.6848   -0.8049   -0.6341 H         1 SYM1        0.0917
     21 HN3        -0.9898    1.3168   -1.7213 H         1 SYM1        0.4988
@<TRIPOS>BOND
     1    7   11 1
     2    7    8 2
     3    7    9 1
     4   11    1 1
     5   11   20 1
     6   11   10 1
     7    1    2 1
     8    1   12 1
     9    1   13 1
    10    4    2 1
    11    4    5 2
    12    4    6 2
    13    3    2 1
    14    3   15 1
    15    3   16 1
    16    3   17 1
    17    2   14 1
    18   18   10 1
    19   19   10 1
    20   21   10 1
@<TRIPOS>SUBSTRUCTURE
     1 SYM1       11 RESIDUE           4 A     SYM     0 ROOT
