@<TRIPOS>MOLECULE
HSER.pdb
17 16 1 0 0
SMALL
AMBER ff99SB


@<TRIPOS>ATOM
      1 N           0.1665   -1.2568   -1.2632 N.4       1 HSER       -0.8386
      2 CA         -0.5124   -0.3448   -0.3323 C.3       1 HSER       -0.0685
      3 C          -1.7599    0.1950   -0.9799 C.2       1 HSER        0.9356
      4 CB          0.4224    0.8127    0.0201 C.3       1 HSER       -0.1254
      5 O          -1.8074    0.3326   -2.1788 O.co2     1 HSER       -0.8013
      6 OXT        -2.8199    0.5244   -0.2257 O.co2     1 HSER       -0.7153
      7 CG          1.6899    0.2645    0.6788 C.3       1 HSER        0.1064
      8 OD          2.5625    1.3449    1.0083 O.3       1 HSER       -0.6378
      9 HA         -0.7794   -0.8856    0.5754 H         1 HSER        0.0877
     10 HB1         0.6895    1.3527   -0.8882 H         1 HSER        0.0647
     11 HB2        -0.0822    1.4889    0.7097 H         1 HSER        0.1177
     12 HG1         2.1938   -0.4124   -0.0117 H         1 HSER        0.0677
     13 HG2         1.4220   -0.2762    1.5862 H         1 HSER        0.0497
     14 HN1         1.0035   -1.6190   -0.8289 H         1 HSER        0.4438
     15 HN2        -0.4508   -2.0223   -1.4942 H         1 HSER        0.4228
     16 HN3         0.4133   -0.7558   -2.1046 H         1 HSER        0.4798
     17 HD          3.3581    0.9997    1.4213 H         1 HSER        0.4130
@<TRIPOS>BOND
     1    2    1 1
     2    2    3 1
     3    2    4 1
     4    2    9 1
     5    3    5 2
     6    3    6 1
     7    4    7 1
     8    4   10 1
     9    4   11 1
    10    7    8 1
    11    7   12 1
    12    7   13 1
    13   14    1 1
    14   15    1 1
    15   16    1 1
    16   17    8 1
@<TRIPOS>SUBSTRUCTURE
     1 HSER        2 RESIDUE           4 A     HSER     0 ROOT
