@<TRIPOS>MOLECULE
AHB.pdb
18 17 1 0 0
SMALL
AMBER ff99SB


@<TRIPOS>ATOM
      1 N           0.9970    0.4740    0.9320 N.4       1 AHB1       -0.8266
      2 CA          0.3590   -0.6530    0.2380 C.3       1 AHB1       -0.1225
      3 CB         -0.9910   -0.2060   -0.3250 C.3       1 AHB1        0.0831
      4 OB         -0.7840    0.7890   -1.3300 O.3       1 AHB1       -0.5538
      5 CG         -1.8330    0.3690    0.7850 C.2       1 AHB1        0.6131
      6 OD1        -2.1400    1.5420    0.7680 O.2       1 AHB1       -0.6811
      7 ND2        -2.2430   -0.4190    1.7980 N.am      1 AHB1       -0.6300
      8 C           1.2460   -1.1130   -0.8900 C.2       1 AHB1        0.9566
      9 O           2.0950   -0.3760   -1.3310 O.co2     1 AHB1       -0.7833
     10 OXT         1.0910   -2.3440   -1.4050 O.co2     1 AHB1       -0.7163
     11 H3          1.1490    1.2470    0.3030 H         1 AHB1        0.4808
     12 H2          0.4520    0.7600    1.7330 H         1 AHB1        0.4468
     13 HA          0.2070   -1.4720    0.9390 H         1 AHB1        0.0957
     14 HB         -1.5050   -1.0620   -0.7630 H         1 AHB1        0.1497
     15 HOB        -0.3310    1.5820   -1.0100 H         1 AHB1        0.4020
     16 HD21       -1.9980   -1.3580    1.8120 H         1 AHB1        0.3275
     17 HD22       -2.7850   -0.0490    2.5120 H         1 AHB1        0.3255
     18 H1          1.8990    0.1630    1.2650 H         1 AHB1        0.4338
@<TRIPOS>BOND
     1    8    2 1
     2    8    9 2
     3    8   10 1
     4    2    1 1
     5    2    3 1
     6    2   13 1
     7    3    4 1
     8    3    5 1
     9    3   14 1
    10    5    6 2
    11    5    7 am
    12   11    1 1
    13   18    1 1
    14   12    1 1
    15   16    7 1
    16   17    7 1
    17   15    4 1
@<TRIPOS>SUBSTRUCTURE
     1 AHB1        2 RESIDUE           4 A     AHB     0 ROOT
