@<TRIPOS>MOLECULE
TYR.pdb
 24 24 0 0 0
SMALL
GASTEIGER

@<TRIPOS>ATOM
      1  N          0.8590   -2.5090    1.4000 N.4    22  TYR22       0.3873
      2  CA         2.2840   -2.3920    1.1040 C.3    22  TYR22       0.0245
      3  O          2.5990   -3.6850    3.1050 O.co2  22  TYR22      -0.2482
      4  CB         2.7240   -0.8990    1.0730 C.3    22  TYR22      -0.0306
      5  CG         2.0620   -0.0080    0.0150 C.ar   22  TYR22      -0.0482
      6  CD1        2.4790   -0.0560   -1.3190 C.ar   22  TYR22      -0.0552
      7  CD2        1.0250    0.8540    0.3830 C.ar   22  TYR22      -0.0552
      8  CE1        1.8600    0.7470   -2.2730 C.ar   22  TYR22      -0.0199
      9  CE2        0.4080    1.6560   -0.5720 C.ar   22  TYR22      -0.0199
     10  CZ         0.8260    1.6020   -1.9000 C.ar   22  TYR22       0.1169
     11  OH         0.2200    2.3860   -2.8400 O.3    22  TYR22      -0.5068
     12  C          3.1130   -3.1200    2.1790 C.2    22  TYR22       0.3423
     13  OXT        4.5390   -3.1230    2.0710 O.co2  22  TYR22      -0.2482
     14  H3         0.4960   -3.0430    2.2660 H      22  TYR22      -0.0889
     15  HA         2.4880   -2.8690    0.1270 H      22  TYR22       0.0201
     16  HB1        3.8200   -0.8370    0.9220 H      22  TYR22       0.0302
     17  HB2        2.5770   -0.4520    2.0780 H      22  TYR22       0.0302
     18  HD1        3.2770   -0.7210   -1.6190 H      22  TYR22       0.0621
     19  HD2        0.6880    0.8930    1.4100 H      22  TYR22       0.0621
     20  HE1        2.1760    0.7070   -3.3050 H      22  TYR22       0.0654
     21  HE2       -0.3960    2.3130   -0.2760 H      22  TYR22       0.0654
     22  HH        -0.4640    2.9030   -2.4090 H      22  TYR22       0.2921
     23  H1         0.4390   -2.9550    0.5970 H      22  TYR22      -0.0889
     24  H2         0.4870   -1.5720    1.4500 H      22  TYR22      -0.0889
@<TRIPOS>BOND
     1    12    13    1
     2     2    15    1
     3     2     4    1
     4     2    12    1
     5     4     5    1
     6     4    16    1
     7     4    17    1
     8     6    18    1
     9     6     8   ar
    10     7     9   ar
    11     7    19    1
    12     8    10   ar
    13     8    20    1
    14     9    10   ar
    15     9    21    1
    16     5     6   ar
    17     5     7   ar
    18    10    11    1
    19     1     2    1
    20     1    24    1
    21     1    23    1
    22     1    14    1
    23     3    12    2
    24    11    22    1
