@<TRIPOS>MOLECULE
BTR.pdb
27 28 1 0 0
SMALL
AMBER ff99SB


@<TRIPOS>ATOM
      1 N          -3.2150   -0.6310    0.5760 N.4       1 BTR1       -0.8316
      2 CA         -2.8290    0.3230   -0.4730 C.3       1 BTR1       -0.0665
      3 C          -4.0460    0.7110   -1.2720 C.2       1 BTR1        0.9346
      4 O          -4.9560   -0.0730   -1.4050 O.co2     1 BTR1       -0.8053
      5 OXT        -4.1190    1.9260   -1.8350 O.co2     1 BTR1       -0.7113
      6 CB         -1.7970   -0.3250   -1.3960 C.3       1 BTR1       -0.0192
      7 CG         -0.5790   -0.7130   -0.5980 C.ar      1 BTR1       -0.1922
      8 CD1        -0.3700   -1.8870    0.0180 C.ar      1 BTR1       -0.0770
      9 NE1         0.8470   -1.8750    0.6440 N.ar      1 BTR1       -0.2344
     10 CE2         1.4650   -0.6610    0.4410 C.ar      1 BTR1       -0.0333
     11 CD2         0.6020    0.1170   -0.3510 C.ar      1 BTR1       -0.0760
     12 CE3         0.9680    1.4130   -0.7140 C.ar      1 BTR1       -0.0880
     13 CZ3         2.1720    1.9170   -0.3080 C.ar      1 BTR1       -0.1260
     14 CH2         3.0300    1.1510    0.4700 C.ar      1 BTR1       -0.0079
     15 BR2         4.6910    1.8700    1.0170 Br        1 BTR1       -0.0821
     16 CZ2         2.6850   -0.1300    0.8430 C.ar      1 BTR1       -0.1140
     17 H3         -3.6070   -1.4340    0.1060 H         1 BTR1        0.4808
     18 H2         -2.3610   -0.9410    1.0140 H         1 BTR1        0.4258
     19 HA         -2.3970    1.2110   -0.0140 H         1 BTR1        0.0877
     20 HB1        -2.2290   -1.2140   -1.8570 H         1 BTR1        0.0677
     21 HB2        -1.5100    0.3820   -2.1750 H         1 BTR1        0.1127
     22 HD1        -1.0600   -2.7180    0.0200 H         1 BTR1        0.1730
     23 HE1         1.2180   -2.6110    1.1540 H         1 BTR1        0.3047
     24 HE3         0.3060    2.0160   -1.3160 H         1 BTR1        0.1500
     25 HZ3         2.4570    2.9190   -0.5920 H         1 BTR1        0.1520
     26 HZ2         3.3600   -0.7180    1.4470 H         1 BTR1        0.1510
     27 H1         -3.8590   -0.2260    1.2400 H         1 BTR1        0.4258
@<TRIPOS>BOND
     1   15   14 1
     2    3    2 1
     3    3    4 2
     4    3    5 1
     5    2    1 1
     6    2    6 1
     7    2   19 1
     8    6    7 1
     9    6   20 1
    10    6   21 1
    11    8    7 ar
    12    8    9 ar
    13    8   22 1
    14   11   10 ar
    15   11    7 ar
    16   11   12 ar
    17   10    9 ar
    18   10   16 ar
    19   12   13 ar
    20   12   24 1
    21   14   13 ar
    22   14   16 ar
    23   16   26 1
    24   13   25 1
    25   17    1 1
    26   27    1 1
    27   18    1 1
    28   23    9 1
@<TRIPOS>SUBSTRUCTURE
     1 BTR1        2 RESIDUE           4 A     BTR     0 ROOT
