@<TRIPOS>MOLECULE
THR.pdb
 17 16 0 0 0
SMALL
GASTEIGER

@<TRIPOS>ATOM
      1  N          1.1510   -2.3130   -0.8200 N.4     1  THR1        0.3888
      2  CA         1.7690   -0.9910   -0.8200 C.3     1  THR1        0.0466
      3  O          3.8440   -2.1700   -0.8200 O.co2   1  THR1       -0.2482
      4  CB         1.2730   -0.1520    0.4060 C.3     1  THR1        0.0498
      5  CG2        1.8540    1.2720    0.5410 C.3     1  THR1       -0.0400
      6  OG1       -0.1340    0.0420    0.3420 O.3     1  THR1       -0.3932
      7  C          3.3040   -1.1010   -0.8200 C.2     1  THR1        0.3445
      8  OXT        4.0960    0.0900   -0.8200 O.co2   1  THR1       -0.2482
      9  H3         1.7380   -3.2200   -0.8200 H       1  THR1       -0.0888
     10  HA         1.4750   -0.4690   -1.7490 H       1  THR1        0.0223
     11  HB         1.5110   -0.7160    1.3340 H       1  THR1        0.0579
     12  HG1       -0.3780    0.4970    1.1530 H       1  THR1        0.2097
     13 HG21        1.4410    1.8090    1.4150 H       1  THR1        0.0254
     14 HG22        2.9510    1.2700    0.6820 H       1  THR1        0.0254
     15 HG23        1.6420    1.8880   -0.3530 H       1  THR1        0.0254
     16  H1         0.5690   -2.3530    0.0050 H       1  THR1       -0.0888
     17  H2         0.5370   -2.3550   -1.6210 H       1  THR1       -0.0888
@<TRIPOS>BOND
     1     7     8    1
     2     2     4    1
     3     2    10    1
     4     2     7    1
     5     4     5    1
     6     4     6    1
     7     4    11    1
     8     5    13    1
     9     5    14    1
    10     5    15    1
    11     1    16    1
    12     1    17    1
    13     1     2    1
    14     1     9    1
    15     3     7    2
    16     6    12    1
