@<TRIPOS>MOLECULE
0AF.pdb
28 29 1 0 0
SMALL
AMBER ff99SB


@<TRIPOS>ATOM
      1 N          -1.7400    1.1710   -0.9610 N.4       1 0AF1       -0.8326
      2 CA         -2.3000   -0.0910   -0.4570 C.3       1 0AF1       -0.0645
      3 C          -3.7600    0.1010   -0.1340 C.2       1 0AF1        0.9336
      4 O          -4.1980    1.2120    0.0470 O.co2     1 0AF1       -0.8083
      5 CB         -1.5490   -0.5130    0.8070 C.3       1 0AF1       -0.0162
      6 CG         -0.1160   -0.8240    0.4600 C.ar      1 0AF1       -0.2032
      7 CD1         0.9060    0.0460    0.4320 C.ar      1 0AF1       -0.0770
      8 CD2         0.4270   -2.1350    0.0970 C.ar      1 0AF1       -0.0570
      9 CE2         1.7970   -1.9360   -0.1380 C.ar      1 0AF1       -0.0563
     10 CE3        -0.1270   -3.4110   -0.0430 C.ar      1 0AF1       -0.1230
     11 NE1         2.0570   -0.6010    0.0740 N.ar      1 0AF1       -0.2164
     12 CZ2         2.5930   -3.0230   -0.5080 C.ar      1 0AF1        0.1191
     13 CZ3         0.6660   -4.4610   -0.4070 C.ar      1 0AF1       -0.1110
     14 OZ2         3.9210   -2.8510   -0.7380 O.3       1 0AF1       -0.5071
     15 CH2         2.0210   -4.2750   -0.6380 C.ar      1 0AF1       -0.1990
     16 OXT        -4.5730   -0.9640   -0.0470 O.co2     1 0AF1       -0.7133
     17 HN1        -2.1760    1.4380   -1.8310 H         1 0AF1        0.4258
     18 HN2        -1.8260    1.9040   -0.2730 H         1 0AF1        0.4798
     19 HN3        -0.7560    1.0250   -1.1380 H         1 0AF1        0.4278
     20 HA         -2.1950   -0.8640   -1.2180 H         1 0AF1        0.0887
     21 HB1        -1.5790    0.2970    1.5360 H         1 0AF1        0.0667
     22 HB2        -2.0210   -1.4000    1.2300 H         1 0AF1        0.1097
     23 HD1         0.8300    1.0990    0.6570 H         1 0AF1        0.1730
     24 HE1         2.9280   -0.1810   -0.0150 H         1 0AF1        0.3137
     25 HE3        -1.1810   -3.5660    0.1370 H         1 0AF1        0.1460
     26 HZ2         4.4750   -2.9670    0.0460 H         1 0AF1        0.4270
     27 HZ3         0.2350   -5.4460   -0.5130 H         1 0AF1        0.1380
     28 HH2         2.6370   -5.1160   -0.9250 H         1 0AF1        0.1370
@<TRIPOS>BOND
     1    3    2 1
     2    3    4 2
     3    3   16 2
     4    2    5 1
     5    2   20 1
     6    2    1 1
     7    5    6 1
     8    5   21 1
     9    5   22 1
    10    7    6 ar
    11    7   23 1
    12    7   11 ar
    13    8    9 ar
    14    8   10 ar
    15    8    6 ar
    16    9   12 ar
    17    9   11 ar
    18   10   13 ar
    19   10   25 1
    20   15   12 ar
    21   15   13 ar
    22   15   28 1
    23   12   14 1
    24   13   27 1
    25   24   11 1
    26   17    1 1
    27   18    1 1
    28   19    1 1
    29   26   14 1
@<TRIPOS>SUBSTRUCTURE
     1 0AF1        2 RESIDUE           4 A     0AF     0 ROOT
