@<TRIPOS>MOLECULE
AHP.pdb
25 24 1 0 0
SMALL
AMBER ff99SB


@<TRIPOS>ATOM
      1 N          22.1880  -19.5900   47.7520 N.4       1 AHP   -0.8376
      2 CA         21.5330  -19.2300   49.0070 C.3       1 AHP   -0.0735
      3 C          20.1970  -19.9190   49.1360 C.2       1 AHP    0.9366
      4 O          19.7650  -20.6780   48.2650 O.co2     1 AHP   -0.8043
      5 CB         21.2900  -17.6940   49.0850 C.3       1 AHP   -0.0734
      6 CG         20.4250  -17.1900   50.2550 C.3       1 AHP   -0.0864
      7 CD         20.2790  -15.6600   50.1650 C.3       1 AHP   -0.0764
      8 CE         20.0910  -15.0770   51.5780 C.3       1 AHP   -0.0804
      9 OXT        19.5570  -19.7380   50.1450 O.co2     1 AHP   -0.7093
     10 CZ         20.5990  -13.6240   51.6030 C.3       1 AHP   -0.0921
     11 HN1        23.0780  -19.1170   47.6880 H         1 AHP    0.4168
     12 HN2        22.3350  -20.5890   47.7240 H         1 AHP    0.4268
     13 HN3        21.6040  -19.3140   46.9760 H         1 AHP    0.4858
     14 HA         22.1680  -19.5580   49.8510 H         1 AHP    0.0897
     15 HB1        20.8160  -17.3440   48.1470 H         1 AHP    0.0667
     16 HB2        22.2680  -17.1670   49.0930 H         1 AHP    0.0147
     17 HG1        20.9000  -17.4550   51.2000 H         1 AHP    0.0357
     18 HG2        19.4390  -17.6520   50.2030 H         1 AHP    0.1037
     19 HD1        19.4120  -15.4130   49.5520 H         1 AHP    0.0447
     20 HD2        21.1760  -15.2360   49.7130 H         1 AHP    0.0277
     21 HE1        20.6570  -15.6710   52.2950 H         1 AHP    0.0367
     22 HE2        19.0340  -15.0960   51.8420 H         1 AHP    0.0507
     23 HZ1        20.7230  -13.2990   52.6370 H         1 AHP    0.0337
     24 HZ2        19.8790  -12.9770   51.1020 H         1 AHP    0.0347
     25 HZ3        21.5580  -13.5660   51.0880 H         1 AHP    0.0287
@<TRIPOS>BOND
     1    3    2 1
     2    3    4 2
     3    3    9 1
     4    2    5 1
     5    2   14 1
     6    2    1 1
     7    5    6 1
     8    5   15 1
     9    5   16 1
    10    7    8 1
    11    7    6 1
    12    7   19 1
    13    7   20 1
    14    8   10 1
    15    8   21 1
    16    8   22 1
    17    6   17 1
    18    6   18 1
    19   10   23 1
    20   10   24 1
    21   10   25 1
    22   11    1 1
    23   12    1 1
    24   13    1 1
@<TRIPOS>SUBSTRUCTURE
     1 AHP     2 RESIDUE           4 A     AHP     0 ROOT
