@<TRIPOS>MOLECULE
GME.pdb
22 21 1 0 0
SMALL
AMBER ff99SB


@<TRIPOS>ATOM
      1 C           2.5719    0.9753   -0.1901 C.2       1 GME1        0.9386
      2 N           1.8803   -1.1722    0.7114 N.4       1 GME1       -0.8236
      3 O           3.1730    1.1453    0.8452 O.co2     1 GME1       -0.7963
      4 CA          1.5924   -0.1618   -0.3174 C.3       1 GME1       -0.0795
      5 CB          0.1697    0.3671   -0.1281 C.3       1 GME1       -0.0884
      6 CD         -2.2329   -0.2412   -0.1954 C.2       1 GME1        0.6411
      7 CG         -0.8315   -0.7629   -0.3801 C.3       1 GME1       -0.1464
      8 CZ         -4.6026   -0.4919   -0.1708 C.3       1 GME1        0.1237
      9 OE1        -2.4137    0.9140    0.1065 O.2       1 GME1       -0.6130
     10 OE2        -3.2825   -1.0623   -0.3660 O.3       1 GME1       -0.4199
     11 H3          1.8003   -0.7779    1.6372 H         1 GME1        0.4808
     12 HA          1.6858   -0.6135   -1.3051 H         1 GME1        0.0857
     13 HB1         0.0505    0.7373    0.8891 H         1 GME1        0.0617
     14 HB2        -0.0121    1.1770   -0.8347 H         1 GME1        0.1317
     15 HG1        -0.7132   -1.1331   -1.3984 H         1 GME1        0.0977
     16 HG2        -0.6494   -1.5736    0.3245 H         1 GME1        0.0867
     17 HZ1        -4.6900   -0.1144    0.8470 H         1 GME1        0.0477
     18 HZ2        -4.7537    0.3262   -0.8769 H         1 GME1        0.0497
     19 HZ3        -5.3588   -1.2592   -0.3396 H         1 GME1        0.0737
     20 OXT         2.7747    1.8068   -1.2262 O.co2     1 GME1       -0.7193
     21 H2          1.2785   -1.9751    0.6077 H         1 GME1        0.4418
     22 H1          2.8340   -1.4800    0.5861 H         1 GME1        0.4258
@<TRIPOS>BOND
     1    1    3 2
     2    1    4 1
     3    1   20 1
     4    4    2 1
     5    4    5 1
     6    4   12 1
     7    5    7 1
     8    5   13 1
     9    5   14 1
    10    6   10 1
    11    6    7 1
    12    6    9 2
    13    7   15 1
    14    7   16 1
    15    8   10 1
    16    8   18 1
    17    8   17 1
    18    8   19 1
    19   11    2 1
    20   22    2 1
    21   21    2 1
@<TRIPOS>SUBSTRUCTURE
     1 GME1        4 RESIDUE           4 A     GME     0 ROOT
