@<TRIPOS>MOLECULE
BTH3.pdb
26 27 1 0 0
SMALL
AMBER ff99SB


@<TRIPOS>ATOM
      1 N          24.0620  -15.0696   50.4359 N.4       1 BTH31       -0.8336
      2 CA         24.2678  -16.5151   50.4794 C.3       1 BTH31       -0.0685
      3 C          25.7351  -16.8487   50.5891 C.2       1 BTH31        0.9366
      4 O          26.6037  -15.9742   50.6339 O.co2     1 BTH31       -0.8023
      5 CB         23.7205  -17.1894   49.1954 C.3       1 BTH31       -0.0342
      6 CG         22.2687  -17.0522   48.9435 C.ar      1 BTH31       -0.1172
      7 CD1        21.7326  -15.9571   48.2401 C.ar      1 BTH31       -0.4280
      8 CD2        21.2966  -17.9889   49.3851 C.ar      1 BTH31       -0.0720
      9 CE2        19.9669  -17.6708   49.0491 C.ar      1 BTH31       -0.0371
     10 CE3        21.5331  -19.1760   50.1165 C.ar      1 BTH31       -0.0930
     11 SE1        19.9932  -16.1631   48.1547 S.2       1 BTH31        0.2441
     12 CZ2        18.8749  -18.4698   49.4127 C.ar      1 BTH31       -0.0960
     13 CZ3        20.4489  -19.9993   50.4908 C.ar      1 BTH31       -0.1270
     14 CH2        19.1265  -19.6473   50.1433 C.ar      1 BTH31       -0.1150
     15 OXT        26.0510  -18.0124   50.6684 O.co2     1 BTH31       -0.7123
     16 HN1        23.0745  -14.8714   50.3617 H         1 BTH31        0.4268
     17 HN2        24.4264  -14.6526   51.2807 H         1 BTH31        0.4258
     18 HN3        24.5432  -14.6848   49.6361 H         1 BTH31        0.4828
     19 HA         23.7581  -16.9242   51.3716 H         1 BTH31        0.0907
     20 HB1        23.9499  -18.2754   49.2107 H         1 BTH31        0.1167
     21 HB2        24.2836  -16.8232   48.3102 H         1 BTH31        0.0717
     22 HD1        22.2951  -15.1336   47.8251 H         1 BTH31        0.1700
     23 HE3        22.5422  -19.4522   50.3877 H         1 BTH31        0.1520
     24 HZ2        17.8668  -18.1906   49.1409 H         1 BTH31        0.1400
     25 HZ3        20.6338  -20.9069   51.0470 H         1 BTH31        0.1410
     26 HH2        18.3059  -20.2841   50.4386 H         1 BTH31        0.1380
@<TRIPOS>BOND
     1    3    2 1
     2    3    4 2
     3    3   15 2
     4    2    5 1
     5    2   19 1
     6    2    1 1
     7    5    6 1
     8    5   20 1
     9    5   21 1
    10    7    6 ar
    11    7   22 1
    12    7   11 ar
    13    8    9 ar
    14    8   10 ar
    15    8    6 ar
    16    9   12 ar
    17    9   11 ar
    18   10   13 ar
    19   10   23 1
    20   14   12 ar
    21   14   13 ar
    22   14   26 1
    23   12   24 1
    24   13   25 1
    25   16    1 1
    26   17    1 1
    27   18    1 1
@<TRIPOS>SUBSTRUCTURE
     1 BTH31        2 RESIDUE           4 A     BTH3     0 ROOT
