@<TRIPOS>MOLECULE
CPA3.pdb
26 26 1 0 0
SMALL
AMBER ff99SB


@<TRIPOS>ATOM
      1 N           4.4761    4.6400   -3.0471 N.4       1 CPA31       -0.8376
      2 CA          4.1512    3.5512   -2.1322 C.3       1 CPA31       -0.0715
      3 C           5.0506    2.5257   -2.5911 C.2       1 CPA31        0.9356
      4 O           5.5347    2.5621   -3.7108 O.co2     1 CPA31       -0.8043
      5 CB          2.6369    3.1857   -2.1653 C.3       1 CPA31       -0.0904
      6 CG          1.8270    4.3987   -1.6046 C.3       1 CPA31       -0.0747
      7 CD1         2.1566    4.7496   -0.1329 C.3       1 CPA31       -0.0804
      8 CD2         0.2979    4.1649   -1.5861 C.3       1 CPA31       -0.0764
      9 CE1         0.9189    5.4955    0.4081 C.3       1 CPA31       -0.0784
     10 CE2        -0.2610    5.1200   -0.5129 C.3       1 CPA31       -0.0794
     11 OXT         5.4802    1.7048   -1.8010 O.co2     1 CPA31       -0.7103
     12 HA          4.4274    3.8416   -1.1186 H         1 CPA31        0.0907
     13 HB1         2.4571    2.3060   -1.5482 H         1 CPA31        0.1187
     14 HB2         2.3303    2.9829   -3.1919 H         1 CPA31        0.0537
     15 HG          2.0362    5.2707   -2.2241 H         1 CPA31        0.0137
     16 HD11        2.3336    3.8405    0.4425 H         1 CPA31        0.0607
     17 HD12        3.0326    5.3974   -0.0905 H         1 CPA31        0.0297
     18 HD21        0.0760    3.1304   -1.3274 H         1 CPA31        0.0547
     19 HD22       -0.1277    4.4057   -2.5605 H         1 CPA31        0.0397
     20 HE11        1.0877    6.5722    0.3824 H         1 CPA31        0.0397
     21 HE12        0.7104    5.1764    1.4294 H         1 CPA31        0.0497
     22 HE21       -0.6687    6.0146   -0.9830 H         1 CPA31        0.0397
     23 HE22       -1.0362    4.6164    0.0634 H         1 CPA31        0.0487
     24 H1          3.9036    5.4434   -2.8322 H         1 CPA31        0.4228
     25 H2          4.2992    4.3453   -3.9967 H         1 CPA31        0.4878
     26 H3          5.4505    4.8850   -2.9467 H         1 CPA31        0.4178
@<TRIPOS>BOND
     1    3    2 1
     2    3    4 2
     3    3   11 2
     4    2    5 1
     5    2   12 1
     6    2    1 1
     7    5    6 1
     8    5   13 1
     9    5   14 1
    10    7    9 1
    11    7    6 1
    12    7   16 1
    13    7   17 1
    14    8   10 1
    15    8    6 1
    16    8   18 1
    17    8   19 1
    18    9   10 1
    19    9   20 1
    20    9   21 1
    21   10   22 1
    22   10   23 1
    23    6   15 1
    24   24    1 1
    25   25    1 1
    26   26    1 1
@<TRIPOS>SUBSTRUCTURE
     1 CPA31        2 RESIDUE           4 A     CPA3     0 ROOT
