@<TRIPOS>MOLECULE
CHP.pdb
21 21 1 0 0
SMALL
AMBER ff99SB


@<TRIPOS>ATOM
      1 N          -2.8809    1.2313   -0.0222 N.4       1 CHP1       -0.8356
      2 CA         -1.6032    1.7423   -0.5371 C.3       1 CHP1       -0.0162
      3 C          -1.5853    1.6294   -2.0387 C.2       1 CHP1        0.9386
      4 O          -2.2029    0.7462   -2.5848 O.co2     1 CHP1       -0.8093
      5 OXT        -0.8847    2.5091   -2.7703 O.co2     1 CHP1       -0.6933
      6 CB         -0.4687    0.9365    0.0417 C.ar      1 CHP1       -0.1553
      7 CG1        -0.4041   -0.4238   -0.1856 C.ar      1 CHP1       -0.0510
      8 CD1         0.6383   -1.1652    0.3402 C.ar      1 CHP1       -0.0786
      9 CLD         0.7221   -2.8739    0.0492 Cl        1 CHP1       -0.0794
     10 CE          1.6137   -0.5413    1.1041 C.ar      1 CHP1        0.1571
     11 OE          2.6372   -1.2679    1.6261 O.3       1 CHP1       -0.4861
     12 CD2         1.5422    0.8247    1.3341 C.ar      1 CHP1       -0.1600
     13 CG2         0.5028    1.5607    0.8032 C.ar      1 CHP1       -0.0780
     14 H3         -2.9423    0.2655   -0.3087 H         1 CHP1        0.4818
     15 H2         -2.8078    1.2286    0.9844 H         1 CHP1        0.4198
     16 HA         -1.4892    2.7888   -0.2506 H         1 CHP1        0.0957
     17 HG1        -1.1634   -0.9100   -0.7795 H         1 CHP1        0.1890
     18 HE          2.3496   -1.5715    2.4961 H         1 CHP1        0.4360
     19 HD2         2.3020    1.3121    1.9286 H         1 CHP1        0.1600
     20 HG2         0.4475    2.6237    0.9822 H         1 CHP1        0.1370
     21 H1         -3.6669    1.7755   -0.3454 H         1 CHP1        0.4298
@<TRIPOS>BOND
     1    3    2 1
     2    3    4 2
     3    3    5 1
     4    6    2 1
     5    6    7 ar
     6    6   13 ar
     7    7    8 ar
     8    7   17 1
     9    8   10 ar
    10    8    9 1
    11   10   11 1
    12   10   12 ar
    13   12   13 ar
    14   12   19 1
    15   13   20 1
    16    2    1 1
    17    2   16 1
    18   14    1 1
    19   21    1 1
    20   15    1 1
    21   18   11 1
@<TRIPOS>SUBSTRUCTURE
     1 CHP1        2 RESIDUE           4 A     CHP     0 ROOT
