@<TRIPOS>MOLECULE
TFLE.pdb
22 21 1 0 0
SMALL
AMBER ff99SB


@<TRIPOS>ATOM
      1 N          21.2620  -19.4890   48.6380 N.4       1 TFLE   -0.8376
      2 CA         21.8300  -18.1440   48.6380 C.3       1 TFLE   -0.0855
      3 O          23.9610  -19.2680   48.6380 O.co2     1 TFLE   -0.7923
      4 CB         21.3020  -17.3280   49.8520 C.3       1 TFLE   -0.1014
      5 CG         19.7670  -17.1430   49.9960 C.3       1 TFLE   -0.0957
      6 CD1        19.4550  -16.2220   51.1840 C.3       1 TFLE    0.6089
      7 CD2        19.1140  -16.5830   48.7210 C.3       1 TFLE   -0.1041
      8 C          23.3690  -18.2220   48.6380 C.2       1 TFLE    0.9416
      9 OXT        24.1210  -17.0050   48.6380 O.co2     1 TFLE   -0.7133
     10 FD1        19.9550  -14.9790   51.0130 F         1 TFLE   -0.2593
     11 FD2        19.9660  -16.7010   52.3380 F         1 TFLE   -0.2663
     12 FD3        18.1250  -16.0920   51.3770 F         1 TFLE   -0.2193
     13 H3         21.8510  -20.3280   48.6380 H         1 TFLE    0.4878
     14 HA         21.5370  -17.6410   47.6990 H         1 TFLE    0.0937
     15 HB1        21.7720  -16.3250   49.8320 H         1 TFLE    0.1397
     16 HB2        21.6810  -17.7930   50.7840 H         1 TFLE    0.0657
     17 HG         19.3180  -18.1360   50.2080 H         1 TFLE    0.0947
     18 HD21       19.5670  -15.6260   48.4040 H         1 TFLE    0.0537
     19 HD22       19.2130  -17.2900   47.8760 H         1 TFLE    0.0697
     20 HD23       18.0290  -16.4140   48.8520 H         1 TFLE    0.0587
     21 H1         20.6824  -19.5508   47.8132 H         1 TFLE    0.4278
     22 H2         20.6497  -19.5543   49.4386 H         1 TFLE    0.4328
@<TRIPOS>BOND
     1    8    2 1
     2    8    3 2
     3    8    9 1
     4    2    4 1
     5    2   14 1
     6    2    1 1
     7    4    5 1
     8    4   15 1
     9    4   16 1
    10    6    5 1
    11    6   10 1
    12    6   11 1
    13    6   12 1
    14    7    5 1
    15    7   18 1
    16    7   19 1
    17    7   20 1
    18    5   17 1
    19   13    1 1
    20   21    1 1
    21   22    1 1
@<TRIPOS>SUBSTRUCTURE
     1 TFLE     2 RESIDUE           4 A     TFLE     0 ROOT
