@<TRIPOS>MOLECULE
2HF.pdb
21 21 1 0 0
SMALL
AMBER ff99SB


@<TRIPOS>ATOM
      1 C          -2.9777   -0.0578   -0.0323 C.2       1 2HF1        1.0376
      2 N          -1.1588   -1.5007    0.6857 N.4       1 2HF1       -0.6666
      3 O          -3.5383   -1.0608   -0.4079 O.co2     1 2HF1       -0.5303
      4 F1          3.9946   -0.8062   -0.0080 F         1 2HF1       -0.0239
      5 CA         -1.5270   -0.1136    0.3721 C.3       1 2HF1       -0.6375
      6 CB         -0.6563    0.3981   -0.7764 C.3       1 2HF1        0.1119
      7 CG          0.7805    0.4598   -0.3293 C.ar      1 2HF1       -0.0336
      8 ND1         1.7077   -0.4935   -0.5209 N.ar      1 2HF1       -0.1561
      9 CD2         1.3618    1.4801    0.3262 C.ar      1 2HF1       -0.1283
     10 CE1         2.8425   -0.1026   -0.0028 C.ar      1 2HF1        0.1953
     11 NE2         2.6706    1.1244    0.5369 N.ar      1 2HF1       -0.1391
     12 OXT        -3.6452    1.1056    0.0176 O.co2     1 2HF1       -0.4753
     13 HN3        -1.2937   -2.1000   -0.1144 H         1 2HF1        0.4138
     14 HN2        -0.2089   -1.5555    1.0228 H         1 2HF1        0.3638
     15 HA         -1.3723    0.5115    1.2523 H         1 2HF1        0.1217
     16 HB1        -0.7438   -0.2775   -1.6281 H         1 2HF1        0.0477
     17 HB2        -0.9895    1.3948   -1.0679 H         1 2HF1        0.0937
     18 HD1         1.5584   -1.3396   -0.9721 H         1 2HF1        0.3627
     19 HD2         0.8889    2.4029    0.6287 H         1 2HF1        0.2360
     20 HE2         3.3463    1.6564    0.9867 H         1 2HF1        0.3657
     21 HN1        -1.7688   -1.8248    1.4226 H         1 2HF1        0.4438
@<TRIPOS>BOND
     1    1    3 2
     2    1    5 1
     3    1   12 1
     4    2    5 1
     5    2   13 1
     6    2   14 1
     7    4   10 1
     8    5    6 1
     9    5   15 1
    10    6    7 1
    11    6   16 1
    12    6   17 1
    13    7    8 ar
    14    7    9 ar
    15    8   10 ar
    16    8   18 1
    17    9   11 ar
    18    9   19 1
    19   10   11 ar
    20   11   20 1
    21   21    2 1
@<TRIPOS>SUBSTRUCTURE
     1 2HF1        5 RESIDUE           4 A     2HF     0 ROOT
