@<TRIPOS>MOLECULE
HOX.pdb
25 25 1 0 0
SMALL
AMBER ff99SB


@<TRIPOS>ATOM
      1 N           1.5970    0.0940    0.0510 N.4       1 HOX   -0.8346
      2 CA          0.2610   -0.4830   -0.0740 C.3       1 HOX   -0.0665
      3 C          -0.1280   -0.8030    1.2800 C.2       1 HOX    0.9356
      4 O           0.5080   -1.5980    1.9580 O.co2     1 HOX   -0.8053
      5 CB          0.2360   -1.7150   -1.0240 C.3       1 HOX   -0.0411
      6 CG          0.4700   -1.3290   -2.4420 C.ar      1 HOX   -0.1653
      7 CD1        -0.5990   -0.8630   -3.2430 C.ar      1 HOX   -0.0820
      8 CD2         1.7590   -1.3980   -3.0190 C.ar      1 HOX   -0.1140
      9 CE1        -0.3860   -0.4740   -4.5790 C.ar      1 HOX   -0.1890
     10 CE2         1.9730   -1.0120   -4.3560 C.ar      1 HOX   -0.1930
     11 CZ          0.9020   -0.5480   -5.1550 C.ar      1 HOX    0.1496
     12 OXT        -1.0610   -0.2250    1.8060 O.co2     1 HOX   -0.7133
     13 NH          1.1150   -0.1480   -6.5530 N.pl3     1 HOX   -0.8222
     14 HA         -0.4160    0.2770   -0.4650 H         1 HOX    0.0877
     15 HB1        -0.7380   -2.1990   -0.9470 H         1 HOX    0.1107
     16 HB2         1.0090   -2.4190   -0.7150 H         1 HOX    0.0687
     17 HD1        -1.5930   -0.8050   -2.8240 H         1 HOX    0.1420
     18 HD2         2.5900   -1.7510   -2.4270 H         1 HOX    0.1290
     19 HE1        -1.2160   -0.1150   -5.1700 H         1 HOX    0.1380
     20 HE2         2.9660   -1.0710   -4.7760 H         1 HOX    0.1360
     21 H1          1.9420    0.3470   -0.8640 H         1 HOX    0.4278
     22 H2          2.2180   -0.5830    0.4700 H         1 HOX    0.4818
     23 H3          1.5550    0.9180    0.6340 H         1 HOX    0.4248
     24 HH1         2.0383   -0.2026   -6.9588 H         1 HOX    0.3968
     25 HH2         0.3381    0.1815   -7.1080 H         1 HOX    0.3978
@<TRIPOS>BOND
     1    3    2 1
     2    3    4 2
     3    3   12 1
     4    2    5 1
     5    2   14 1
     6    2    1 1
     7    5    6 1
     8    5   15 1
     9    5   16 1
    10    7    9 ar
    11    7    6 ar
    12    7   17 1
    13    8   10 ar
    14    8    6 ar
    15    8   18 1
    16    9   11 ar
    17    9   19 1
    18   10   11 ar
    19   10   20 1
    20   11   13 1
    21   21    1 1
    22   22    1 1
    23   23    1 1
    24   24   13 1
    25   25   13 1
@<TRIPOS>SUBSTRUCTURE
     1 HOX     2 RESIDUE           4 A     HOX     0 ROOT
