@<TRIPOS>MOLECULE
HPE.pdb
 26 26 0 0 0
SMALL
GASTEIGER

@<TRIPOS>ATOM
      1  N         22.1880  -19.5900   47.7520 N.4     1  HPE        0.3871
      2  CA        21.5330  -19.2300   49.0070 C.3     1  HPE        0.0208
      3  C         20.1970  -19.9190   49.1360 C.2     1  HPE        0.3420
      4  O         19.7650  -20.6780   48.2650 O.co2   1  HPE       -0.2483
      5  CB        21.2900  -17.6940   49.0850 C.3     1  HPE       -0.0520
      6  OXT       19.5570  -19.7380   50.1450 O.co2   1  HPE       -0.2483
      7  CG        20.1200  -17.2240   49.9680 C.3     1  HPE       -0.0287
      8  CD        20.1020  -15.6850   50.0220 C.ar    1  HPE       -0.0474
      9  CE1       20.9330  -15.0040   50.9260 C.ar    1  HPE       -0.0586
     10  CZ1       20.9170  -13.6000   50.9750 C.ar    1  HPE       -0.0615
     11  CH        20.0700  -12.8780   50.1200 C.ar    1  HPE       -0.0617
     12  CZ2       19.2380  -13.5580   49.2150 C.ar    1  HPE       -0.0615
     13  CE2       19.2540  -14.9620   49.1670 C.ar    1  HPE       -0.0586
     14  HN1       23.0780  -19.1170   47.6880 H       1  HPE       -0.0889
     15  HN2       22.3350  -20.5890   47.7240 H       1  HPE       -0.0889
     16  HN3       21.6040  -19.3140   46.9760 H       1  HPE       -0.0889
     17  HA        22.1680  -19.5580   49.8510 H       1  HPE        0.0198
     18  HB1       21.1200  -17.2920   48.0670 H       1  HPE        0.0257
     19  HB2       22.2250  -17.1900   49.4090 H       1  HPE        0.0257
     20  HG1       20.2410  -17.6220   50.9760 H       1  HPE        0.0313
     21  HG2       19.1800  -17.5830   49.5480 H       1  HPE        0.0313
     22  HE1       21.5990  -15.5720   51.5980 H       1  HPE        0.0620
     23  HZ1       21.5710  -13.0660   51.6860 H       1  HPE        0.0618
     24  HH        20.0570  -11.7750   50.1580 H       1  HPE        0.0618
     25  HZ2       18.5720  -12.9910   48.5430 H       1  HPE        0.0618
     26  HE2       18.6010  -15.4970   48.4560 H       1  HPE        0.0620
@<TRIPOS>BOND
     1    16     1    1
     2    14     1    1
     3    15     1    1
     4     1     2    1
     5    18     5    1
     6     4     3   2
     7    26    13    1
     8    25    12    1
     9     2     5    1
    10     2     3    1
    11     2    17    1
    12     5    19    1
    13     5     7    1
    14     3     6   1
    15    13    12   ar
    16    13     8   ar
    17    12    11   ar
    18    21     7    1
    19     7     8    1
    20     7    20    1
    21     8     9   ar
    22    11    24    1
    23    11    10   ar
    24     9    10   ar
    25     9    22    1
    26    10    23    1
