@<TRIPOS>MOLECULE
TH6.pdb
18 17 1 0 0
SMALL
AMBER ff99SB


@<TRIPOS>ATOM
      1 N           1.2114    1.0981    1.8924 N.4       1 TH61       -0.8266
      2 CA          0.2468    0.1405    1.3350 C.3       1 TH61       -0.0705
      3 C           0.6316   -1.2570    1.7460 C.2       1 TH61        0.9346
      4 O           1.7608   -1.4923    2.1069 O.co2     1 TH61       -0.7923
      5 CB          0.2510    0.2429   -0.1912 C.3       1 TH61        0.1071
      6 OB1        -0.0166    1.5918   -0.5791 O.3       1 TH61       -0.6568
      7 CG         -0.8268   -0.6778   -0.7669 C.3       1 TH61        0.0874
      8 OD         -0.7453   -0.6716   -2.1938 O.3       1 TH61       -0.6088
      9 OXT        -0.2800   -2.2423    1.7113 O.co2     1 TH61       -0.7213
     10 HN1         2.1445    0.9076    1.5582 H         1 TH61        0.4818
     11 HN2         0.9397    2.0473    1.6853 H         1 TH61        0.4438
     12 HN3         1.2136    0.9876    2.8972 H         1 TH61        0.4278
     13 HA         -0.7498    0.3681    1.7120 H         1 TH61        0.0937
     14 HB          1.2287   -0.0562   -0.5724 H         1 TH61        0.0637
     15 HB1        -0.8714    1.9267   -0.2740 H         1 TH61        0.4440
     16 HG1        -0.6725   -1.6916   -0.3997 H         1 TH61        0.1097
     17 HG2        -1.8101   -0.3234   -0.4574 H         1 TH61        0.0717
     18 HD         -1.4000   -1.2348   -2.6288 H         1 TH61        0.4100
@<TRIPOS>BOND
     1    3    2 1
     2    3    4 2
     3    3    9 2
     4    2    5 1
     5    2   13 1
     6    2    1 1
     7    5    7 1
     8    5   14 1
     9    5    6 1
    10    7   16 1
    11    7   17 1
    12    7    8 1
    13   15    6 1
    14   18    8 1
    15   10    1 1
    16   11    1 1
    17   12    1 1
@<TRIPOS>SUBSTRUCTURE
     1 TH61        2 RESIDUE           4 A     TH6     0 ROOT
