@<TRIPOS>MOLECULE
FT6.pdb
27 28 1 0 0
SMALL
AMBER ff99SB


@<TRIPOS>ATOM
      1 N           1.2030    3.6300    5.9280 N.4       1 FT61       -0.8356
      2 CA          1.0440    2.2830    6.4180 C.3       1 FT61       -0.0705
      3 C           2.3900    1.6610    6.7600 C.2       1 FT61        0.9376
      4 OXT         2.3760    0.8240    7.8250 O.co2     1 FT61       -0.7303
      5 CB          0.2740    1.4160    5.3940 C.3       1 FT61        0.0118
      6 CG         -0.3850    0.2320    5.9810 C.ar      1 FT61       -0.2002
      7 CD2        -1.7070    0.1720    6.5050 C.ar      1 FT61       -0.0820
      8 CD1         0.1770   -1.0150    6.1190 C.ar      1 FT61        0.1032
      9 NE1        -0.7500   -1.8330    6.7070 N.ar      1 FT61       -0.2344
     10 CE2        -1.9100   -1.1340    6.9540 C.ar      1 FT61       -0.0133
     11 CZ2        -3.1130   -1.5550    7.5350 C.ar      1 FT61       -0.1770
     12 CH2        -4.1360   -0.6110    7.6600 C.ar      1 FT61        0.1319
     13 FAP        -5.3010   -0.9720    8.2110 F         1 FT61       -0.1449
     14 CZ3        -3.9600    0.7000    7.2210 C.ar      1 FT61       -0.1840
     15 CE3        -2.7520    1.1070    6.6420 C.ar      1 FT61       -0.0760
     16 O           3.4140    1.9000    6.1290 O.co2     1 FT61       -0.7993
     17 HA          0.4520    2.3270    7.3330 H         1 FT61        0.0967
     18 HB1        -0.4900    2.0360    4.9250 H         1 FT61        0.0277
     19 HB2         0.9720    1.0810    4.6260 H         1 FT61        0.0827
     20 HD1         1.1750   -1.2990    5.8180 H         1 FT61        0.0968
     21 HZ2        -3.2450   -2.5710    7.8740 H         1 FT61        0.1500
     22 HZ3        -4.7660    1.4120    7.3290 H         1 FT61        0.1450
     23 HE3        -2.6230    2.1240    6.3040 H         1 FT61        0.1270
     24 HE1        -0.6050   -2.8080    6.9280 H         1 FT61        0.3057
     25 H1          0.2970    4.0190    5.7090 H         1 FT61        0.4188
     26 H2          1.7750    3.6200    5.0950 H         1 FT61        0.4838
     27 H3          1.6500    4.1950    6.6360 H         1 FT61        0.4278
@<TRIPOS>BOND
     1    3    2 1
     2    3    4 1
     3    3   16 2
     4    2   17 1
     5    2    1 1
     6    2    5 1
     7    5   18 1
     8    5    6 1
     9    5   19 1
    10    8    6 ar
    11    8    9 ar
    12    8   20 1
    13    7   10 ar
    14    7    6 ar
    15    7   15 ar
    16   10    9 ar
    17   10   11 ar
    18   15   14 ar
    19   15   23 1
    20   12   11 ar
    21   12   13 1
    22   12   14 ar
    23   11   21 1
    24   14   22 1
    25   25    1 1
    26   26    1 1
    27   27    1 1
    28   24    9 1
@<TRIPOS>SUBSTRUCTURE
     1 FT61        2 RESIDUE           4 A     FT6     0 ROOT
