@<TRIPOS>MOLECULE
FVAL.pdb
19 18 1 0 0
SMALL
AMBER ff99SB


@<TRIPOS>ATOM
      1 N          -0.0900   -2.0470   -0.8480 N.4       1 FVAL   -0.8336
      2 CA          0.4310   -0.6830   -0.8480 C.3       1 FVAL   -0.1025
      3 O           2.5990   -1.7290   -0.8480 O.co2     1 FVAL   -0.7883
      4 CB         -0.1320    0.1060    0.4000 C.3       1 FVAL    0.1853
      5 CG1         0.4690    1.5160    0.6530 C.3       1 FVAL   -0.1091
      6 CG2        -1.6650    0.3160    0.3690 C.3       1 FVAL   -0.1361
      7 C           1.9720   -0.7050   -0.8480 C.2       1 FVAL    0.9426
      8 OXT         2.6800    0.5380   -0.8480 O.co2     1 FVAL   -0.7103
      9 FG3         0.1460   -0.6320    1.4960 F         1 FVAL   -0.2443
     10 H3          0.5620   -2.9090   -0.8480 H         1 FVAL    0.4918
     11 HA          0.1070   -0.1780   -1.7760 H         1 FVAL    0.0967
     12 HG11        0.3140    2.2020   -0.2010 H         1 FVAL    0.0777
     13 HG12        0.0360    2.0030    1.5480 H         1 FVAL    0.0427
     14 HG13        1.5580    1.4820    0.8480 H         1 FVAL    0.0887
     15 HG21       -2.2090   -0.6400    0.2590 H         1 FVAL    0.0197
     16 HG22       -2.0370    0.7720    1.3070 H         1 FVAL    0.0667
     17 HG23       -1.9830    0.9710   -0.4640 H         1 FVAL    0.0607
     18 H1         -0.6671   -2.1291   -1.6728 H         1 FVAL    0.4238
     19 H2         -0.6995   -2.1337   -0.0473 H         1 FVAL    0.4288
@<TRIPOS>BOND
     1    7    2 1
     2    7    3 2
     3    7    8 1
     4    2    4 1
     5    2   11 1
     6    2    1 1
     7    4    5 1
     8    4    6 1
     9    4    9 1
    10    5   12 1
    11    5   13 1
    12    5   14 1
    13    6   15 1
    14    6   16 1
    15    6   17 1
    16   10    1 1
    17   18    1 1
    18   19    1 1
@<TRIPOS>SUBSTRUCTURE
     1 FVAL     2 RESIDUE           4 A     FVAL     0 ROOT
