@<TRIPOS>MOLECULE
TYI.pdb
24 24 1 0 0
SMALL
AMBER ff99SB


@<TRIPOS>ATOM
      1 N          -1.6280   -1.2490    2.5130 N.4       1 TYI1       -0.8336
      2 CA         -2.2840   -0.4800    1.4490 C.3       1 TYI1       -0.0755
      3 CB         -1.3720   -0.4220    0.2230 C.3       1 TYI1       -0.0461
      4 CG         -0.0720    0.2420    0.5950 C.ar      1 TYI1       -0.1573
      5 CD1         0.9840   -0.5180    1.0580 C.ar      1 TYI1       -0.0760
      6 CE1         2.1770    0.0880    1.3990 C.ar      1 TYI1       -0.0151
      7 CD2         0.0640    1.6130    0.4650 C.ar      1 TYI1       -0.0370
      8 CE2         1.2530    2.2260    0.8110 C.ar      1 TYI1       -0.0691
      9 CZ          2.3140    1.4640    1.2770 C.ar      1 TYI1        0.2021
     10 OH          3.4870    2.0630    1.6110 O.3       1 TYI1       -0.4741
     11 C          -3.5850   -1.1440    1.0780 C.2       1 TYI1        0.9386
     12 O          -3.7050   -2.3410    1.1850 O.co2     1 TYI1       -0.7973
     13 OXT        -4.6110   -0.4060    0.6280 O.co2     1 TYI1       -0.7083
     14 IE1         3.7780   -1.0670    2.1010 I         1 TYI1       -0.1009
     15 IE2         1.4560    4.3010    0.6220 I         1 TYI1       -0.1159
     16 H3         -0.7210   -0.8310    2.6550 H         1 TYI1        0.4238
     17 H2         -1.4660   -2.1740    2.1420 H         1 TYI1        0.4848
     18 HA         -2.4820    0.5320    1.8020 H         1 TYI1        0.0897
     19 HB1        -1.1750   -1.4340   -0.1310 H         1 TYI1        0.0727
     20 HB2        -1.8600    0.1490   -0.5670 H         1 TYI1        0.1197
     21 HD1         0.8770   -1.5890    1.1530 H         1 TYI1        0.1460
     22 HD2        -0.7630    2.2050    0.1030 H         1 TYI1        0.1620
     23 HH          4.0310    2.0790    0.8130 H         1 TYI1        0.4400
     24 H1         -2.1750   -1.2690    3.3610 H         1 TYI1        0.4268
@<TRIPOS>BOND
     1   11    2 1
     2   11   12 2
     3   11   13 1
     4    2    1 1
     5    2    3 1
     6    2   18 1
     7    3    4 1
     8    3   19 1
     9    3   20 1
    10    5    4 ar
    11    5    6 ar
    12    5   21 1
    13    7    4 ar
    14    7    8 ar
    15    7   22 1
    16    6    9 ar
    17    6   14 1
    18    8    9 ar
    19    8   15 1
    20    9   10 1
    21   16    1 1
    22   24    1 1
    23   17    1 1
    24   23   10 1
@<TRIPOS>SUBSTRUCTURE
     1 TYI1        2 RESIDUE           4 A     TYI     0 ROOT
