@<TRIPOS>MOLECULE
OTYR.pdb
24 24 1 0 0
SMALL
AMBER ff99SB


@<TRIPOS>ATOM
      1 N          -0.8130   -2.1990    1.4230 N.4       1 OTYR   -0.8286
      2 CA          0.6120   -2.0820    1.1270 C.3       1 OTYR   -0.0645
      3 C           1.4480   -2.8100    2.2010 C.2       1 OTYR    0.9356
      4 O           0.9270   -3.3750    3.1280 O.co2     1 OTYR   -0.8053
      5 CB          1.0520   -0.5890    1.0960 C.3       1 OTYR   -0.0421
      6 CG          0.3900    0.3020    0.0380 C.ar      1 OTYR   -0.1163
      7 CD2         0.8070    0.2540   -1.2960 C.ar      1 OTYR   -0.0910
      8 CD1        -0.6470    1.1640    0.4060 C.ar      1 OTYR    0.0911
      9 CE2         0.1880    1.0570   -2.2500 C.ar      1 OTYR   -0.1470
     10 CE1        -1.2640    1.9660   -0.5490 C.ar      1 OTYR   -0.1940
     11 CZ         -0.8460    1.9120   -1.8770 C.ar      1 OTYR   -0.0950
     12 OXT         2.8740   -2.8130    2.0940 O.co2     1 OTYR   -0.7193
     13 OD1        -1.0930    1.2160    1.7640 O.3       1 OTYR   -0.5521
     14 HA          0.8160   -2.5590    0.1500 H         1 OTYR    0.0877
     15 HB1         2.1480   -0.5270    0.9450 H         1 OTYR    0.1227
     16 HB2         0.9050   -0.1420    2.1010 H         1 OTYR    0.0687
     17 HD2         1.6050   -0.4110   -1.5960 H         1 OTYR    0.1520
     18 HE2         0.5040    1.0170   -3.2820 H         1 OTYR    0.1430
     19 H1         -1.1630   -1.2550    1.5060 H         1 OTYR    0.4448
     20 H2         -1.2530   -2.6100    0.6120 H         1 OTYR    0.4168
     21 H3         -1.1760   -2.7330    2.2890 H         1 OTYR    0.4798
     22 HD1        -1.0490    2.1210    2.0810 H         1 OTYR    0.4350
     23 HE1        -2.0660    2.6296   -0.2612 H         1 OTYR    0.1370
     24 HZ         -1.3248    2.5344   -2.6185 H         1 OTYR    0.1400
@<TRIPOS>BOND
     1    3    2 1
     2    3    4 2
     3    3   12 1
     4    2    5 1
     5    2   14 1
     6    2    1 1
     7    5    6 1
     8    5   15 1
     9    5   16 1
    10    7    9 ar
    11    7    6 ar
    12    7   17 1
    13    8   10 ar
    14    8    6 ar
    15    8   13 1
    16    9   11 ar
    17    9   18 1
    18   10   11 ar
    19   22   13 1
    20   19    1 1
    21   20    1 1
    22   21    1 1
    23   23   10 1
    24   24   11 1
@<TRIPOS>SUBSTRUCTURE
     1 OTYR     2 RESIDUE           4 A     OTYR     0 ROOT
