@<TRIPOS>MOLECULE
6CW.pdb
27 28 1 0 0
SMALL
AMBER ff99SB


@<TRIPOS>ATOM
      1 N           1.2705    3.8123    6.8159 N.4       1 6CW1       -0.8326
      2 CA          1.3615    2.4011    7.0969 C.3       1 6CW1       -0.0665
      3 C           2.7783    1.8891    6.8791 C.2       1 6CW1        0.9346
      4 O           3.5167    2.3246    6.0014 O.co2     1 6CW1       -0.8063
      5 CB          0.3445    1.6063    6.2451 C.3       1 6CW1       -0.0192
      6 CG         -1.0612    2.0028    6.4577 C.ar      1 6CW1       -0.1892
      7 CD1        -1.7284    2.9957    5.7775 C.ar      1 6CW1       -0.0800
      8 CD2        -1.9689    1.4341    7.3928 C.ar      1 6CW1       -0.0880
      9 CE2        -3.1830    2.1108    7.2514 C.ar      1 6CW1       -0.0243
     10 CE3        -1.8757    0.4034    8.3500 C.ar      1 6CW1       -0.0800
     11 NE1        -3.0072    3.0545    6.2636 N.ar      1 6CW1       -0.2344
     12 CZ2        -4.3111    1.8088    8.0211 C.ar      1 6CW1       -0.1390
     13 CZ3        -2.9971    0.0896    9.1287 C.ar      1 6CW1       -0.1450
     14 CH2        -4.1951    0.7834    8.9642 C.ar      1 6CW1        0.0374
     15 CLL        -5.5557    0.3734    9.9391 Cl        1 6CW1       -0.0884
     16 OXT         3.1703    0.9152    7.7352 O.co2     1 6CW1       -0.7123
     17 HA          1.1092    2.2512    8.1474 H         1 6CW1        0.0877
     18 HB1         0.5876    1.7565    5.1939 H         1 6CW1        0.0687
     19 HB2         0.4479    0.5463    6.4793 H         1 6CW1        0.1117
     20 HD1        -1.3161    3.6201    4.9989 H         1 6CW1        0.1730
     21 HE1        -3.7194    3.6957    5.9440 H         1 6CW1        0.3047
     22 HE3        -0.9501   -0.1375    8.4811 H         1 6CW1        0.1490
     23 HZ2        -5.2386    2.3483    7.8919 H         1 6CW1        0.1520
     24 HZ3        -2.9325   -0.6978    9.8637 H         1 6CW1        0.1520
     25 H1          0.3225    4.1258    6.9688 H         1 6CW1        0.4268
     26 H2          1.8944    4.3186    7.4275 H         1 6CW1        0.4258
     27 H3          1.5296    3.9812    5.8549 H         1 6CW1        0.4808
@<TRIPOS>BOND
     1    3    2 1
     2    3    4 2
     3    3   16 2
     4    2    5 1
     5    2   17 1
     6    2    1 1
     7    5    6 1
     8    5   18 1
     9    5   19 1
    10    7    6 ar
    11    7   20 1
    12    7   11 ar
    13    8    9 ar
    14    8   10 ar
    15    8    6 ar
    16    9   12 ar
    17    9   11 ar
    18   10   13 ar
    19   10   22 1
    20   14   15 1
    21   14   12 ar
    22   14   13 ar
    23   12   23 1
    24   13   24 1
    25   25    1 1
    26   26    1 1
    27   27    1 1
    28   21   11 1
@<TRIPOS>SUBSTRUCTURE
     1 6CW1        2 RESIDUE           4 A     6CW     0 ROOT
