@<TRIPOS>MOLECULE
*****
 29 30 0 0 0
SMALL
GASTEIGER
Energy = 0

@<TRIPOS>ATOM
      1 CA          0.3485   -0.1758   -0.4014 C.3     1  NAL        0.0200
      2 CB           1.2404   -0.6072   -1.6030 C.3     1  NAL        0.0209
      3 CG          2.1087    0.5004   -2.0909 C.ar    1  NAL       -0.0411
      4 CE2          2.5029    2.4083   -3.5968 C.ar    1  NAL       -0.0176
      5 CD2          1.6866    1.3473   -3.1419 C.ar    1  NAL       -0.0506
      6 CD1          3.3646    0.7400   -1.4877 C.ar    1  NAL       -0.0578
      7 CE1          4.1794    1.8017   -1.9175 C.ar    1  NAL       -0.0538
      8 CZ           3.7622    2.6417   -2.9730 C.ar    1  NAL       -0.0179
      9 CH1          4.5763    3.7069   -3.4215 C.ar    1  NAL       -0.0540
     10 CJ1          4.1528    4.5276   -4.4813 C.ar    1  NAL       -0.0612
     11 CJ2          2.9135    4.2949   -5.1009 C.ar    1  NAL       -0.0612
     12 CH2          2.0905    3.2425   -4.6612 C.ar    1  NAL       -0.0540
     13 N           1.1406    0.4023    0.7030 N.4     1  NAL        0.2251
     14 C          -0.4523   -1.2942    0.0670 C.2     1  NAL        0.0897
     15 O          -1.4308   -1.6640   -0.5668 O.co2   1  NAL       -0.5442
     16 OXT        -0.1696   -1.9197    1.0778 O.co2   1  NAL       -0.5442
     17 HA         -0.3325    0.6130   -0.7353 H       1  NAL        0.0918
     18 HB1           0.5698   -0.8339   -2.4318 H       1  NAL        0.0372
     19 HB2           1.9263   -1.3691   -1.2328 H       1  NAL        0.0372
     20 HD2          0.7162    1.1796   -3.6091 H       1  NAL        0.0626
     21 HD1           3.7099    0.0964   -0.6786 H       1  NAL        0.0620
     22 HE1          5.1391    1.9744   -1.4303 H       1  NAL        0.0624
     23 HH1          5.5386    3.8970   -2.9463 H       1  NAL        0.0624
     24 HJ1           4.7865    5.3458   -4.8232 H       1  NAL        0.0618
     25 HJ1           2.5900    4.9319   -5.9241 H       1  NAL        0.0618
     26 HH2          1.1296    3.0729   -5.1472 H       1  NAL        0.0624
     27 HN1          1.5383   -0.3422    1.2576 H       1  NAL        0.2001
     28 HN2          1.8826    0.9722    0.3227 H       1  NAL        0.2001
     29 HN3          0.5424    0.9722    1.2839 H       1  NAL        0.2001
@<TRIPOS>BOND
     1     1     2    1
     2     2     3    1
     3     5     3   ar
     4     3     6   ar
     5     4     5   ar
     6     4     8   ar
     7     4    12   ar
     8     6     7   ar
     9     7     8   ar
    10     8     9   ar
    11     9    10   ar
    12    10    11   ar
    13    11    12   ar
    14     1    13    1
    15     1    14    1
    16    14    15   2
    17    14    16   1
    18     1    17    1
    19     2    18    1
    20     2    19    1
    21     5    20    1
    22     6    21    1
    23     7    22    1
    24     9    23    1
    25    10    24    1
    26    11    25    1
    27    12    26    1
    28    13    27    1
    29    13    28    1
    30    13    29    1
