@<TRIPOS>MOLECULE
TRO.pdb
28 29 1 0 0
SMALL
AMBER ff99SB


@<TRIPOS>ATOM
      1 N           2.3720    0.9050   -0.7870 N.4       1 TRO1       -0.8326
      2 CA          1.8560   -0.4660   -0.6770 C.3       1 TRO1       -0.0655
      3 CB          0.5320   -0.5740   -1.4340 C.3       1 TRO1       -0.0192
      4 CG         -0.4660    0.3860   -0.8420 C.ar      1 TRO1       -0.1492
      5 CD1        -0.6660    1.6670   -1.2180 C.ar      1 TRO1        0.0781
      6 OD1         0.0090    2.3070   -2.2040 O.3       1 TRO1       -0.5231
      7 NE1        -1.6560    2.2240   -0.4530 N.ar      1 TRO1       -0.2494
      8 CE2        -2.1280    1.2960    0.4520 C.ar      1 TRO1       -0.0143
      9 CZ2        -3.1050    1.3360    1.4380 C.ar      1 TRO1       -0.1470
     10 CH2        -3.3540    0.2150    2.2020 C.ar      1 TRO1       -0.1020
     11 CZ3        -2.6360   -0.9540    1.9970 C.ar      1 TRO1       -0.1510
     12 CE3        -1.6700   -1.0140    1.0320 C.ar      1 TRO1       -0.0750
     13 CD2        -1.4070    0.1070    0.2430 C.ar      1 TRO1       -0.0780
     14 C           2.8540   -1.4260   -1.2680 C.2       1 TRO1        0.9346
     15 O           3.5750   -1.0710   -2.1700 O.co2     1 TRO1       -0.8053
     16 OXT         2.9440   -2.6780   -0.7920 O.co2     1 TRO1       -0.7183
     17 H3          1.6330    1.5190   -0.4760 H         1 TRO1        0.4418
     18 H2          2.5050    1.0860   -1.7700 H         1 TRO1        0.4808
     19 HA          1.6950   -0.7090    0.3730 H         1 TRO1        0.0907
     20 HB1         0.6930   -0.3300   -2.4840 H         1 TRO1        0.0627
     21 HB2         0.1500   -1.5910   -1.3520 H         1 TRO1        0.1207
     22 HD1        -0.4840    2.1580   -3.0230 H         1 TRO1        0.4380
     23 HE1        -1.9780    3.1350   -0.5370 H         1 TRO1        0.3047
     24 HZ2        -3.6690    2.2420    1.6070 H         1 TRO1        0.1370
     25 HH2        -4.1150    0.2480    2.9680 H         1 TRO1        0.1350
     26 HZ3        -2.8430   -1.8230    2.6040 H         1 TRO1        0.1380
     27 HE3        -1.1150   -1.9290    0.8770 H         1 TRO1        0.1500
     28 H1          3.2220    1.0350   -0.2580 H         1 TRO1        0.4188
@<TRIPOS>BOND
     1   14    2 1
     2   14   15 2
     3   14   16 1
     4    2    1 1
     5    2    3 1
     6    2   19 1
     7    3    4 1
     8    3   20 1
     9    3   21 1
    10    5    4 ar
    11    5    6 1
    12    5    7 ar
    13   13    4 ar
    14   13    8 ar
    15   13   12 ar
    16    8    7 ar
    17    8    9 ar
    18   12   11 ar
    19   12   27 1
    20   10    9 ar
    21   10   11 ar
    22   10   25 1
    23    9   24 1
    24   11   26 1
    25   17    1 1
    26   28    1 1
    27   18    1 1
    28   22    6 1
    29   23    7 1
@<TRIPOS>SUBSTRUCTURE
     1 TRO1        2 RESIDUE           4 A     TRO     0 ROOT
