@<TRIPOS>MOLECULE
UN1.pdb
21 20 1 0 0
SMALL
AMBER ff99SB


@<TRIPOS>ATOM
      1 N          -0.3490    0.7100   -1.1120 N.4       1 UN1   -0.8666
      2 CA          0.3950   -0.2770   -0.3310 C.3       1 UN1   -0.0335
      3 C           1.1450    0.5580    0.5750 C.2       1 UN1    0.9156
      4 O           0.5940    1.1750    1.4770 O.co2     1 UN1   -0.8343
      5 CB          1.3840   -1.0290   -1.2690 C.3       1 UN1   -0.0824
      6 CG          0.6970   -1.8470   -2.4010 C.3       1 UN1   -0.0804
      7 CD          1.7210   -2.5240   -3.3550 C.3       1 UN1   -0.2034
      8 CE          1.0920   -3.2600   -4.4350 C.2       1 UN1    0.9056
      9 OXT         2.3270    0.7640    0.3720 O.co2     1 UN1   -0.7763
     10 OZ1         1.2420   -2.9230   -5.6040 O.co2     1 UN1   -0.7683
     11 OZ2         0.4070   -4.2490   -4.2070 O.co2     1 UN1   -0.8763
     12 HA         -0.2670   -1.0000    0.1450 H         1 UN1    0.0747
     13 HB1         2.0420   -0.2930   -1.7310 H         1 UN1    0.0477
     14 HB2         1.9880   -1.7070   -0.6660 H         1 UN1    0.0767
     15 HG1         0.0800   -2.6220   -1.9460 H         1 UN1    0.0307
     16 HG2         0.0590   -1.1810   -2.9810 H         1 UN1    0.0497
     17 HD1         2.3560   -1.7500   -3.7860 H         1 UN1    0.0267
     18 HD2         2.3420   -3.2080   -2.7770 H         1 UN1    0.0467
     19 H1         -0.9230    0.2370   -1.7960 H         1 UN1    0.4118
     20 H2         -0.9380    1.2530   -0.4970 H         1 UN1    0.4268
     21 H3          0.2990    1.3240   -1.5860 H         1 UN1    0.5098
@<TRIPOS>BOND
     1    3    2 1
     2    3    4 2
     3    3    9 1
     4    2    5 1
     5    2   12 1
     6    2    1 1
     7    5    6 1
     8    5   13 1
     9    5   14 1
    10    7    8 1
    11    7    6 1
    12    7   17 1
    13    7   18 1
    14    8   10 2
    15    8   11 1
    16    6   15 1
    17    6   16 1
    18   19    1 1
    19   20    1 1
    20   21    1 1
@<TRIPOS>SUBSTRUCTURE
     1 UN1     2 RESIDUE           4 A     UN1     0 ROOT
