@<TRIPOS>MOLECULE
BIU.pdb
22 21 1 0 0
SMALL
AMBER ff99SB


@<TRIPOS>ATOM
      1 N          -0.1836    2.6960    0.6648 N.4       1 BIU1       -0.8306
      2 CA          0.8213    1.7593    1.1840 C.3       1 BIU1       -0.0775
      3 CB          0.9708    0.5842    0.2172 C.3       1 BIU1       -0.0657
      4 CG2         2.0170   -0.3923    0.7572 C.3       1 BIU1       -0.1041
      5 CG1        -0.3722   -0.1345    0.0753 C.3       1 BIU1       -0.0924
      6 CD         -0.2559   -1.2320   -0.9846 C.3       1 BIU1       -0.0090
      7 C           2.1445    2.4675    1.3228 C.2       1 BIU1        0.9346
      8 O           2.3528    3.4858    0.7069 O.co2     1 BIU1       -0.8003
      9 BR         -1.9822   -2.1542   -1.1658 Br        1 BIU1       -0.1734
     10 HN1         0.0894    3.0543   -0.2383 H         1 BIU1        0.4818
     11 HN2        -1.0941    2.2644    0.6231 H         1 BIU1        0.4178
     12 HA          0.5037    1.3892    2.1593 H         1 BIU1        0.0917
     13 HB          1.2895    0.9533   -0.7582 H         1 BIU1        0.0777
     14 HG21        1.6992   -0.7624    1.7315 H         1 BIU1        0.0327
     15 HG22        2.1246   -1.2303    0.0676 H         1 BIU1        0.0387
     16 HG23        2.9745    0.1189    0.8581 H         1 BIU1        0.1017
     17 HG11       -0.6483   -0.5810    1.0313 H         1 BIU1        0.0497
     18 HG12       -1.1372    0.5809   -0.2252 H         1 BIU1        0.0297
     19 HD1         0.0202   -0.7845   -1.9406 H         1 BIU1        0.0827
     20 HD2         0.5099   -1.9474   -0.6852 H         1 BIU1        0.0857
     21 OXT         3.0926    1.9665    2.1304 O.co2     1 BIU1       -0.7103
     22 HN3        -0.2393    3.4768    1.3041 H         1 BIU1        0.4358
@<TRIPOS>BOND
     1    9    6 1
     2    7    2 1
     3    7    8 2
     4    7   21 1
     5    2    1 1
     6    2    3 1
     7    2   12 1
     8    3    4 1
     9    3    5 1
    10    3   13 1
    11    6    5 1
    12    6   19 1
    13    6   20 1
    14    5   18 1
    15    5   17 1
    16    4   14 1
    17    4   15 1
    18    4   16 1
    19   22    1 1
    20   10    1 1
    21   11    1 1
@<TRIPOS>SUBSTRUCTURE
     1 BIU1        2 RESIDUE           4 A     BIU     0 ROOT
