@<TRIPOS>MOLECULE
2FM.pdb
20 19 1 0 0
SMALL
AMBER ff99SB


@<TRIPOS>ATOM
      1 O          -1.1890    0.6210    3.8950 O.co2     1 2FM   -0.7033
      2 C          -0.1200    0.0680    3.3020 C.2       1 2FM    0.9396
      3 OXT         0.5020   -0.7990    3.8670 O.co2     1 2FM   -0.7963
      4 CA          0.3030    0.5290    1.9310 C.3       1 2FM   -0.0775
      5 N           1.7570    0.3760    1.7910 N.4       1 2FM   -0.8376
      6 CB         -0.4030   -0.3150    0.8680 C.3       1 2FM   -0.0874
      7 CG          0.0270    0.1520   -0.5230 C.3       1 2FM   -0.0243
      8 SD         -0.8100   -0.8480   -1.7830 S.3       1 2FM   -0.3112
      9 CE         -0.1310   -0.0930   -3.2860 C.3       1 2FM    0.4920
     10 FZ1        -0.4700    1.2630   -3.3210 F         1 2FM   -0.2223
     11 FZ2         1.2600   -0.2270   -3.2870 F         1 2FM   -0.2333
     12 HA          0.0330    1.5770    1.8010 H         1 2FM    0.0917
     13 HN1         1.9590   -0.6030    1.9180 H         1 2FM    0.4898
     14 HN2         1.9810    0.5960    0.8320 H         1 2FM    0.4258
     15 HB1        -1.4820   -0.2010    0.9720 H         1 2FM    0.1337
     16 HB2        -0.1330   -1.3630    0.9990 H         1 2FM    0.0707
     17 HG1         1.1060    0.0390   -0.6270 H         1 2FM    0.0417
     18 HG2        -0.2420    1.2000   -0.6530 H         1 2FM    0.0837
     19 HE         -0.5450   -0.5930   -4.1620 H         1 2FM    0.1047
     20 HN3         2.2650    0.9570    2.4430 H         1 2FM    0.4188
@<TRIPOS>BOND
     1    2    1 2
     2    2    3 1
     3    2    4 1
     4    4    5 1
     5    4    6 1
     6    4   12 1
     7    6    7 1
     8    6   15 1
     9    6   16 1
    10    9    8 1
    11    9   10 1
    12    9   11 1
    13    9   19 1
    14    7    8 1
    15    7   17 1
    16    7   18 1
    17   20    5 1
    18   13    5 1
    19   14    5 1
@<TRIPOS>SUBSTRUCTURE
     1 2FM     4 RESIDUE           4 A     2FM     0 ROOT
