@<TRIPOS>MOLECULE
ARO.pdb
28 27 1 0 0
SMALL
AMBER ff99SB


@<TRIPOS>ATOM
      1 N           2.5619    1.3547   -0.1202 N.4       1 ARO1       -0.8286
      2 CA          2.2460   -0.0796   -0.1027 C.3       1 ARO1       -0.1135
      3 C           3.1926   -0.8133   -1.0182 C.2       1 ARO1        0.9526
      4 O           3.3750   -2.1353   -0.8754 O.co2     1 ARO1       -0.7003
      5 CB          0.8080   -0.2918   -0.5799 C.3       1 ARO1       -0.1214
      6 CG         -0.1610    0.3203    0.4334 C.3       1 ARO1        0.1121
      7 OH         -0.0049    1.7402    0.4458 O.3       1 ARO1       -0.6198
      8 CD         -1.5973   -0.0314    0.0417 C.3       1 ARO1       -0.0187
      9 NE         -2.5247    0.5543    1.0129 N.pl3     1 ARO1       -0.4021
     10 CZ         -3.8806    0.3706    0.8669 C.cat     1 ARO1        0.5571
     11 NH1        -4.3516   -0.3425   -0.1638 N.pl3     1 ARO1       -0.5151
     12 NH2        -4.7283    0.9057    1.7528 N.pl3     1 ARO1       -0.5221
     13 OXT         3.7864   -0.2112   -1.8814 O.co2     1 ARO1       -0.7623
     14 H3          2.3001    1.6978   -1.0323 H         1 ARO1        0.4878
     15 H2          1.9422    1.7959    0.5427 H         1 ARO1        0.4268
     16 HA          2.3525   -0.4627    0.9116 H         1 ARO1        0.0967
     17 HB1         0.6722    0.1901   -1.5490 H         1 ARO1        0.0727
     18 HB2         0.6094   -1.3592   -0.6743 H         1 ARO1        0.1277
     19 HG          0.0526   -0.0781    1.4257 H         1 ARO1        0.1007
     20 HH         -0.2020    2.0510   -0.4485 H         1 ARO1        0.4200
     21 HD1        -1.8120    0.3663   -0.9509 H         1 ARO1        0.0717
     22 HD2        -1.7176   -1.1153    0.0327 H         1 ARO1        0.0877
     23 HE         -2.1838    1.0701    1.7592 H         1 ARO1        0.3337
     24 HH11       -3.7368   -0.7306   -0.8071 H         1 ARO1        0.3307
     25 HH12       -5.3076   -0.4717   -0.2680 H         1 ARO1        0.3297
     26 HH21       -5.6841    0.7759    1.6492 H         1 ARO1        0.3297
     27 HH22       -4.3873    1.4221    2.4997 H         1 ARO1        0.3287
     28 H1          3.5339    1.5328    0.0895 H         1 ARO1        0.4388
@<TRIPOS>BOND
     1    3   13 1
     2    3    2 1
     3    3    4 2
     4    2    1 1
     5    2    5 1
     6    2   16 1
     7    5    6 1
     8    5   18 1
     9    5   17 1
    10    8    6 1
    11    8    9 1
    12    8   21 1
    13    8   22 1
    14    6    7 1
    15    6   19 1
    16   10    9 2
    17   10   11 2
    18   10   12 2
    19   14    1 1
    20   28    1 1
    21   15    1 1
    22   23    9 1
    23   20    7 1
    24   24   11 1
    25   25   11 1
    26   26   12 1
    27   27   12 1
@<TRIPOS>SUBSTRUCTURE
     1 ARO1        2 RESIDUE           4 A     ARO     0 ROOT
