@<TRIPOS>MOLECULE
NIY.pdb
26 26 1 0 0
SMALL
AMBER ff99SB


@<TRIPOS>ATOM
      1 N          -0.9846    0.3710    2.6913 N.4       1 NIY1       -0.8336
      2 CA          0.1394    0.3581    1.7897 C.3       1 NIY1       -0.0795
      3 C           0.0887    1.5421    0.8329 C.2       1 NIY1        0.9396
      4 O          -0.9608    2.0035    0.3972 O.co2     1 NIY1       -0.7963
      5 CB          0.1979   -0.9545    0.9975 C.3       1 NIY1       -0.0461
      6 CG          0.2804   -2.1735    1.8841 C.ar      1 NIY1       -0.1633
      7 CD1         1.5233   -2.6564    2.2630 C.ar      1 NIY1       -0.0360
      8 CD2        -0.8889   -2.7871    2.3038 C.ar      1 NIY1       -0.0680
      9 CE1         1.5988   -3.7811    3.0821 C.ar      1 NIY1       -0.2712
     10 CE2        -0.8153   -3.9130    3.1239 C.ar      1 NIY1       -0.1760
     11 CZ          0.4294   -4.4108    3.5133 C.ar      1 NIY1        0.2241
     12 OH          0.4777   -5.5128    4.3151 O.3       1 NIY1       -0.4861
     13 NN          2.8746   -4.2754    3.4681 N.2       1 NIY1        0.3242
     14 ON1         3.9011   -3.6827    3.0621 O.co2     1 NIY1       -0.1820
     15 ON2         2.9359   -5.2876    4.2067 O.co2     1 NIY1       -0.2410
     16 OXT         1.2969    2.0564    0.5008 O.co2     1 NIY1       -0.7033
     17 HA          1.0510    0.4393    2.3817 H         1 NIY1        0.0917
     18 HB1         1.0787   -0.9330    0.3539 H         1 NIY1        0.1227
     19 HB2        -0.6925   -1.0302    0.3744 H         1 NIY1        0.0727
     20 HD1         2.4241   -2.1647    1.9267 H         1 NIY1        0.1800
     21 HD2        -1.8492   -2.3976    1.9998 H         1 NIY1        0.1490
     22 HE2        -1.7188   -4.3998    3.4574 H         1 NIY1        0.1710
     23 HH          1.3933   -5.7356    4.4979 H         1 NIY1        0.4720
     24 H1         -0.9270   -0.4217    3.3138 H         1 NIY1        0.4208
     25 H2         -1.8423    0.3203    2.1608 H         1 NIY1        0.4868
     26 H3         -0.9729    1.2246    3.2315 H         1 NIY1        0.4278
@<TRIPOS>BOND
     1    3    2 1
     2    3    4 2
     3    3   16 2
     4    2    5 1
     5    2   17 1
     6    2    1 1
     7    5    6 1
     8    5   18 1
     9    5   19 1
    10    7    9 ar
    11    7    6 ar
    12    7   20 1
    13    8   10 ar
    14    8    6 ar
    15    8   21 1
    16    9   11 ar
    17    9   13 1
    18   10   11 ar
    19   10   22 1
    20   11   12 1
    21   24    1 1
    22   25    1 1
    23   26    1 1
    24   23   12 1
    25   13   14 2
    26   13   15 2
@<TRIPOS>SUBSTRUCTURE
     1 NIY1        2 RESIDUE           4 A     NIY     0 ROOT
