@<TRIPOS>MOLECULE
4BF.pdb
23 23 1 0 0
SMALL
AMBER ff99SB


@<TRIPOS>ATOM
      1 N          22.1880  -19.5900   47.7520 N.4       1 4BF   -0.8356
      2 CA         21.5330  -19.2300   49.0070 C.3       1 4BF   -0.0715
      3 C          20.1970  -19.9190   49.1360 C.2       1 4BF    0.9376
      4 O          19.7650  -20.6780   48.2650 O.co2     1 4BF   -0.7993
      5 CB         21.2900  -17.6940   49.0850 C.3       1 4BF   -0.0541
      6 CG         22.5350  -16.7980   49.0580 C.ar      1 4BF   -0.0993
      7 CD1        23.2570  -16.5470   50.2290 C.ar      1 4BF   -0.1230
      8 CD2        22.9580  -16.2340   47.8510 C.ar      1 4BF   -0.1580
      9 CE1        24.3930  -15.7440   50.1890 C.ar      1 4BF   -0.0960
     10 CE2        24.0940  -15.4320   47.8130 C.ar      1 4BF   -0.0990
     11 CZ         24.8110  -15.1870   48.9830 C.ar      1 4BF   -0.0289
     12 OXT        19.5570  -19.7380   50.1450 O.co2     1 4BF   -0.7083
     13 BRZ        26.3950  -14.0690   48.9300 Br        1 4BF   -0.0741
     14 HN1        23.0780  -19.1170   47.6880 H         1 4BF    0.4248
     15 HN2        22.3350  -20.5890   47.7240 H         1 4BF    0.4258
     16 HN3        21.6040  -19.3140   46.9760 H         1 4BF    0.4848
     17 HA         22.1680  -19.5580   49.8510 H         1 4BF    0.0907
     18 HB1        20.7270  -17.4530   50.0080 H         1 4BF    0.1197
     19 HB2        20.5970  -17.3900   48.2730 H         1 4BF    0.0727
     20 HD1        22.9440  -16.9800   51.1690 H         1 4BF    0.1510
     21 HD2        22.4120  -16.4290   46.9380 H         1 4BF    0.1350
     22 HE1        24.9508  -15.5527   51.0938 H         1 4BF    0.1540
     23 HE2        24.4199  -14.9998   46.8784 H         1 4BF    0.1510
@<TRIPOS>BOND
     1   13   11 1
     2    3    2 1
     3    3    4 2
     4    3   12 1
     5    2    5 1
     6    2   17 1
     7    2    1 1
     8    5    6 1
     9    5   18 1
    10    5   19 1
    11    7    9 ar
    12    7    6 ar
    13    7   20 1
    14    8   10 ar
    15    8    6 ar
    16    8   21 1
    17    9   11 ar
    18   10   11 ar
    19   14    1 1
    20   15    1 1
    21   16    1 1
    22   22    9 1
    23   23   10 1
@<TRIPOS>SUBSTRUCTURE
     1 4BF     2 RESIDUE           4 A     4BF     0 ROOT
