@<TRIPOS>MOLECULE
MHO.pdb
21 20 1 0 0
SMALL
AMBER ff99SB


@<TRIPOS>ATOM
      1 N           1.4600    1.2000    0.0130 N.4       1 MHO1       -0.8196
      2 CA          1.3960    0.2390    1.1220 C.3       1 MHO1       -0.0755
      3 CB          0.2170   -0.7100    0.9070 C.3       1 MHO1       -0.0644
      4 CG         -1.0830    0.0940    0.8540 C.3       1 MHO1       -0.1001
      5 SD         -2.4820   -1.0320    0.5990 S.o       1 MHO1        0.2636
      6 CE         -3.8480    0.1610    0.5770 C.3       1 MHO1       -0.1248
      7 C           2.6760   -0.5520    1.1750 C.2       1 MHO1        0.9366
      8 O           3.2960   -0.7680    0.1620 O.co2     1 MHO1       -0.7993
      9 OXT         3.1290   -1.0190    2.3500 O.co2     1 MHO1       -0.7253
     10 OD         -2.3680   -1.6460   -0.6760 O.2       1 MHO1       -0.5672
     11 H3          0.5500    1.6310   -0.0500 H         1 MHO1        0.4488
     12 H2          1.5830    0.6590   -0.8310 H         1 MHO1        0.4758
     13 HA          1.2630    0.7770    2.0600 H         1 MHO1        0.0847
     14 HB1         0.1680   -1.4230    1.7310 H         1 MHO1        0.1267
     15 HB2         0.3500   -1.2490   -0.0300 H         1 MHO1        0.0507
     16 HG1        -1.0360    0.8060    0.0300 H         1 MHO1        0.0857
     17 HG2        -1.2160    0.6330    1.7920 H         1 MHO1        0.0937
     18 HE1        -4.7890   -0.3680    0.4280 H         1 MHO1        0.0957
     19 HE2        -3.8770    0.6960    1.5250 H         1 MHO1        0.0887
     20 HE3        -3.6960    0.8700   -0.2370 H         1 MHO1        0.0947
     21 H1          2.1960    1.8800    0.1400 H         1 MHO1        0.4298
@<TRIPOS>BOND
     1    7    2 1
     2    7    8 2
     3    7    9 1
     4    2    1 1
     5    2    3 1
     6    2   13 1
     7    3    4 1
     8    3   14 1
     9    3   15 1
    10    6    5 1
    11    6   18 1
    12    6   19 1
    13    6   20 1
    14    4    5 1
    15    4   16 1
    16    4   17 1
    17   11    1 1
    18   21    1 1
    19   12    1 1
    20   10    5 2
@<TRIPOS>SUBSTRUCTURE
     1 MHO1        2 RESIDUE           4 A     MHO     0 ROOT
